<?xml version='1.0' encoding='utf-8'?>
<routes>
	<vType accel="3.0" decel="6.0" id="CarDefault" length="5.0" minGap="2.5" maxSpeed="50.0" sigma="0.5" />
	<route id="sr1064" edges="488 975 976 743 744 745 741 742 430 210 12 11 341 627 628 967 968 957 958 1002 1003 1004 1005 1006 1007 884 885 346" fromJunction="357" toJunction="315" />
	<route id="sr1065" edges="288 287 739 415 233 886 774 502 892 893 503 13 229 972 479 480 922 712 487 711 254 386 390 389 388 822" fromJunction="241" toJunction="316" />
	<route id="sr1066" edges="794 919 920 923 924 915 916 750 751 964 213 212 211 411 410 8" fromJunction="292" toJunction="357" />
	<vehicle id="v178" depart="0.0" route="sr1064" type="CarDefault" departLane="random" />
	<vehicle id="v1219" depart="0.0" route="sr1065" type="CarDefault" departLane="random" />
	<vehicle id="v2319" depart="0.0" route="sr1066" type="CarDefault" departLane="random" />
	<vehicle id="v2320" depart="3.38" route="sr1066" type="CarDefault" departLane="random" />
	<vehicle id="v1220" depart="3.58" route="sr1065" type="CarDefault" departLane="random" />
	<vehicle id="v179" depart="3.8" route="sr1064" type="CarDefault" departLane="random" />
	<vehicle id="v2225" depart="6" route="sr1066" type="CarDefault" departLane="random" />
	<vehicle id="v2321" depart="6.75" route="sr1066" type="CarDefault" departLane="random" />
	<vehicle id="v1221" depart="7.16" route="sr1065" type="CarDefault" departLane="random" />
	<vehicle id="v180" depart="7.6" route="sr1064" type="CarDefault" departLane="random" />
	<vehicle id="v1126" depart="9" route="sr1065" type="CarDefault" departLane="random" />
	<vehicle id="v2322" depart="10.13" route="sr1066" type="CarDefault" departLane="random" />
	<vehicle id="v1222" depart="10.75" route="sr1065" type="CarDefault" departLane="random" />
	<vehicle id="v181" depart="11.4" route="sr1064" type="CarDefault" departLane="random" />
	<vehicle id="v2323" depart="13.51" route="sr1066" type="CarDefault" departLane="random" />
	<vehicle id="v1223" depart="14.33" route="sr1065" type="CarDefault" departLane="random" />
	<vehicle id="v182" depart="15.21" route="sr1064" type="CarDefault" departLane="random" />
	<vehicle id="v2324" depart="16.89" route="sr1066" type="CarDefault" departLane="random" />
	<vehicle id="v1224" depart="17.91" route="sr1065" type="CarDefault" departLane="random" />
	<vehicle id="v183" depart="19.01" route="sr1064" type="CarDefault" departLane="random" />
	<vehicle id="v2325" depart="20.26" route="sr1066" type="CarDefault" departLane="random" />
	<vehicle id="v1225" depart="21.49" route="sr1065" type="CarDefault" departLane="random" />
	<vehicle id="v184" depart="22.81" route="sr1064" type="CarDefault" departLane="random" />
	<vehicle id="v2326" depart="23.64" route="sr1066" type="CarDefault" departLane="random" />
	<vehicle id="v1226" depart="25.07" route="sr1065" type="CarDefault" departLane="random" />
	<vehicle id="v185" depart="26.61" route="sr1064" type="CarDefault" departLane="random" />
	<vehicle id="v2327" depart="27.02" route="sr1066" type="CarDefault" departLane="random" />
	<vehicle id="v0" depart="28" route="sr1064" type="CarDefault" departLane="random" />
	<vehicle id="v1227" depart="28.66" route="sr1065" type="CarDefault" departLane="random" />
	<vehicle id="v2328" depart="30.39" route="sr1066" type="CarDefault" departLane="random" />
	<vehicle id="v186" depart="30.41" route="sr1064" type="CarDefault" departLane="random" />
	<vehicle id="v2226" depart="31" route="sr1066" type="CarDefault" departLane="random" />
	<vehicle id="v1228" depart="32.24" route="sr1065" type="CarDefault" departLane="random" />
	<vehicle id="v2329" depart="33.77" route="sr1066" type="CarDefault" departLane="random" />
	<vehicle id="v187" depart="34.21" route="sr1064" type="CarDefault" departLane="random" />
	<vehicle id="v1229" depart="35.82" route="sr1065" type="CarDefault" departLane="random" />
	<vehicle id="v2330" depart="37.15" route="sr1066" type="CarDefault" departLane="random" />
	<vehicle id="v188" depart="38.01" route="sr1064" type="CarDefault" departLane="random" />
	<vehicle id="v1230" depart="39.4" route="sr1065" type="CarDefault" departLane="random" />
	<vehicle id="v1" depart="40" route="sr1064" type="CarDefault" departLane="random" />
	<vehicle id="v2331" depart="40.53" route="sr1066" type="CarDefault" departLane="random" />
	<vehicle id="v189" depart="41.82" route="sr1064" type="CarDefault" departLane="random" />
	<vehicle id="v1231" depart="42.99" route="sr1065" type="CarDefault" departLane="random" />
	<vehicle id="v2332" depart="43.9" route="sr1066" type="CarDefault" departLane="random" />
	<vehicle id="v190" depart="45.62" route="sr1064" type="CarDefault" departLane="random" />
	<vehicle id="v1232" depart="46.57" route="sr1065" type="CarDefault" departLane="random" />
	<vehicle id="v2333" depart="47.28" route="sr1066" type="CarDefault" departLane="random" />
	<vehicle id="v191" depart="49.42" route="sr1064" type="CarDefault" departLane="random" />
	<vehicle id="v1233" depart="50.15" route="sr1065" type="CarDefault" departLane="random" />
	<vehicle id="v2334" depart="50.66" route="sr1066" type="CarDefault" departLane="random" />
	<vehicle id="v2" depart="53" route="sr1064" type="CarDefault" departLane="random" />
	<vehicle id="v192" depart="53.22" route="sr1064" type="CarDefault" departLane="random" />
	<vehicle id="v1234" depart="53.73" route="sr1065" type="CarDefault" departLane="random" />
	<vehicle id="v2335" depart="54.03" route="sr1066" type="CarDefault" departLane="random" />
	<vehicle id="v193" depart="57.02" route="sr1064" type="CarDefault" departLane="random" />
	<vehicle id="v1235" depart="57.31" route="sr1065" type="CarDefault" departLane="random" />
	<vehicle id="v2336" depart="57.41" route="sr1066" type="CarDefault" departLane="random" />
	<vehicle id="v2337" depart="60.79" route="sr1066" type="CarDefault" departLane="random" />
	<vehicle id="v194" depart="60.82" route="sr1064" type="CarDefault" departLane="random" />
	<vehicle id="v1236" depart="60.9" route="sr1065" type="CarDefault" departLane="random" />
	<vehicle id="v3" depart="62" route="sr1064" type="CarDefault" departLane="random" />
	<vehicle id="v2338" depart="64.17" route="sr1066" type="CarDefault" departLane="random" />
	<vehicle id="v1237" depart="64.48" route="sr1065" type="CarDefault" departLane="random" />
	<vehicle id="v195" depart="64.63" route="sr1064" type="CarDefault" departLane="random" />
	<vehicle id="v2339" depart="67.54" route="sr1066" type="CarDefault" departLane="random" />
	<vehicle id="v1238" depart="68.06" route="sr1065" type="CarDefault" departLane="random" />
	<vehicle id="v196" depart="68.43" route="sr1064" type="CarDefault" departLane="random" />
	<vehicle id="v2340" depart="70.92" route="sr1066" type="CarDefault" departLane="random" />
	<vehicle id="v1239" depart="71.64" route="sr1065" type="CarDefault" departLane="random" />
	<vehicle id="v197" depart="72.23" route="sr1064" type="CarDefault" departLane="random" />
	<vehicle id="v1127" depart="73" route="sr1065" type="CarDefault" departLane="random" />
	<vehicle id="v2227" depart="73" route="sr1066" type="CarDefault" departLane="random" />
	<vehicle id="v2341" depart="74.3" route="sr1066" type="CarDefault" departLane="random" />
	<vehicle id="v1240" depart="75.22" route="sr1065" type="CarDefault" departLane="random" />
	<vehicle id="v198" depart="76.03" route="sr1064" type="CarDefault" departLane="random" />
	<vehicle id="v2342" depart="77.67" route="sr1066" type="CarDefault" departLane="random" />
	<vehicle id="v1241" depart="78.81" route="sr1065" type="CarDefault" departLane="random" />
	<vehicle id="v199" depart="79.83" route="sr1064" type="CarDefault" departLane="random" />
	<vehicle id="v2343" depart="81.05" route="sr1066" type="CarDefault" departLane="random" />
	<vehicle id="v1242" depart="82.39" route="sr1065" type="CarDefault" departLane="random" />
	<vehicle id="v200" depart="83.63" route="sr1064" type="CarDefault" departLane="random" />
	<vehicle id="v2344" depart="84.43" route="sr1066" type="CarDefault" departLane="random" />
	<vehicle id="v1243" depart="85.97" route="sr1065" type="CarDefault" departLane="random" />
	<vehicle id="v201" depart="87.43" route="sr1064" type="CarDefault" departLane="random" />
	<vehicle id="v2345" depart="87.8" route="sr1066" type="CarDefault" departLane="random" />
	<vehicle id="v1244" depart="89.55" route="sr1065" type="CarDefault" departLane="random" />
	<vehicle id="v1128" depart="91" route="sr1065" type="CarDefault" departLane="random" />
	<vehicle id="v2346" depart="91.18" route="sr1066" type="CarDefault" departLane="random" />
	<vehicle id="v202" depart="91.24" route="sr1064" type="CarDefault" departLane="random" />
	<vehicle id="v2228" depart="92" route="sr1066" type="CarDefault" departLane="random" />
	<vehicle id="v5" depart="93" route="sr1064" type="CarDefault" departLane="random" />
	<vehicle id="v1245" depart="93.13" route="sr1065" type="CarDefault" departLane="random" />
	<vehicle id="v2347" depart="94.56" route="sr1066" type="CarDefault" departLane="random" />
	<vehicle id="v203" depart="95.04" route="sr1064" type="CarDefault" departLane="random" />
	<vehicle id="v4" depart="96" route="sr1064" type="CarDefault" departLane="random" />
	<vehicle id="v1246" depart="96.72" route="sr1065" type="CarDefault" departLane="random" />
	<vehicle id="v2348" depart="97.94" route="sr1066" type="CarDefault" departLane="random" />
	<vehicle id="v204" depart="98.84" route="sr1064" type="CarDefault" departLane="random" />
	<vehicle id="v1247" depart="100.3" route="sr1065" type="CarDefault" departLane="random" />
	<vehicle id="v2349" depart="101.31" route="sr1066" type="CarDefault" departLane="random" />
	<vehicle id="v205" depart="102.64" route="sr1064" type="CarDefault" departLane="random" />
	<vehicle id="v7" depart="103" route="sr1064" type="CarDefault" departLane="random" />
	<vehicle id="v1248" depart="103.88" route="sr1065" type="CarDefault" departLane="random" />
	<vehicle id="v2350" depart="104.69" route="sr1066" type="CarDefault" departLane="random" />
	<vehicle id="v206" depart="106.44" route="sr1064" type="CarDefault" departLane="random" />
	<vehicle id="v1249" depart="107.46" route="sr1065" type="CarDefault" departLane="random" />
	<vehicle id="v2351" depart="108.07" route="sr1066" type="CarDefault" departLane="random" />
	<vehicle id="v207" depart="110.24" route="sr1064" type="CarDefault" departLane="random" />
	<vehicle id="v1250" depart="111.04" route="sr1065" type="CarDefault" departLane="random" />
	<vehicle id="v2352" depart="111.44" route="sr1066" type="CarDefault" departLane="random" />
	<vehicle id="v6" depart="112" route="sr1064" type="CarDefault" departLane="random" />
	<vehicle id="v208" depart="114.04" route="sr1064" type="CarDefault" departLane="random" />
	<vehicle id="v1251" depart="114.63" route="sr1065" type="CarDefault" departLane="random" />
	<vehicle id="v2353" depart="114.82" route="sr1066" type="CarDefault" departLane="random" />
	<vehicle id="v209" depart="117.85" route="sr1064" type="CarDefault" departLane="random" />
	<vehicle id="v2354" depart="118.2" route="sr1066" type="CarDefault" departLane="random" />
	<vehicle id="v1252" depart="118.21" route="sr1065" type="CarDefault" departLane="random" />
	<vehicle id="v2355" depart="121.58" route="sr1066" type="CarDefault" departLane="random" />
	<vehicle id="v210" depart="121.65" route="sr1064" type="CarDefault" departLane="random" />
	<vehicle id="v1253" depart="121.79" route="sr1065" type="CarDefault" departLane="random" />
	<vehicle id="v2229" depart="123" route="sr1066" type="CarDefault" departLane="random" />
	<vehicle id="v2356" depart="124.95" route="sr1066" type="CarDefault" departLane="random" />
	<vehicle id="v1254" depart="125.37" route="sr1065" type="CarDefault" departLane="random" />
	<vehicle id="v211" depart="125.45" route="sr1064" type="CarDefault" departLane="random" />
	<vehicle id="v2357" depart="128.33" route="sr1066" type="CarDefault" departLane="random" />
	<vehicle id="v1255" depart="128.96" route="sr1065" type="CarDefault" departLane="random" />
	<vehicle id="v212" depart="129.25" route="sr1064" type="CarDefault" departLane="random" />
	<vehicle id="v2358" depart="131.71" route="sr1066" type="CarDefault" departLane="random" />
	<vehicle id="v1256" depart="132.54" route="sr1065" type="CarDefault" departLane="random" />
	<vehicle id="v213" depart="133.05" route="sr1064" type="CarDefault" departLane="random" />
	<vehicle id="v2359" depart="135.08" route="sr1066" type="CarDefault" departLane="random" />
	<vehicle id="v1257" depart="136.12" route="sr1065" type="CarDefault" departLane="random" />
	<vehicle id="v214" depart="136.85" route="sr1064" type="CarDefault" departLane="random" />
	<vehicle id="v2360" depart="138.46" route="sr1066" type="CarDefault" departLane="random" />
	<vehicle id="v1258" depart="139.7" route="sr1065" type="CarDefault" departLane="random" />
	<vehicle id="v215" depart="140.65" route="sr1064" type="CarDefault" departLane="random" />
	<vehicle id="v8" depart="141" route="sr1064" type="CarDefault" departLane="random" />
	<vehicle id="v2361" depart="141.84" route="sr1066" type="CarDefault" departLane="random" />
	<vehicle id="v1259" depart="143.28" route="sr1065" type="CarDefault" departLane="random" />
	<vehicle id="v216" depart="144.46" route="sr1064" type="CarDefault" departLane="random" />
	<vehicle id="v2362" depart="145.22" route="sr1066" type="CarDefault" departLane="random" />
	<vehicle id="v1260" depart="146.87" route="sr1065" type="CarDefault" departLane="random" />
	<vehicle id="v2230" depart="147" route="sr1066" type="CarDefault" departLane="random" />
	<vehicle id="v217" depart="148.26" route="sr1064" type="CarDefault" departLane="random" />
	<vehicle id="v2363" depart="148.59" route="sr1066" type="CarDefault" departLane="random" />
	<vehicle id="v1261" depart="150.45" route="sr1065" type="CarDefault" departLane="random" />
	<vehicle id="v9" depart="151" route="sr1064" type="CarDefault" departLane="random" />
	<vehicle id="v2364" depart="151.97" route="sr1066" type="CarDefault" departLane="random" />
	<vehicle id="v218" depart="152.06" route="sr1064" type="CarDefault" departLane="random" />
	<vehicle id="v1262" depart="154.03" route="sr1065" type="CarDefault" departLane="random" />
	<vehicle id="v2365" depart="155.35" route="sr1066" type="CarDefault" departLane="random" />
	<vehicle id="v219" depart="155.86" route="sr1064" type="CarDefault" departLane="random" />
	<vehicle id="v1263" depart="157.61" route="sr1065" type="CarDefault" departLane="random" />
	<vehicle id="v2366" depart="158.72" route="sr1066" type="CarDefault" departLane="random" />
	<vehicle id="v220" depart="159.66" route="sr1064" type="CarDefault" departLane="random" />
	<vehicle id="v10" depart="161" route="sr1064" type="CarDefault" departLane="random" />
	<vehicle id="v1264" depart="161.19" route="sr1065" type="CarDefault" departLane="random" />
	<vehicle id="v2367" depart="162.1" route="sr1066" type="CarDefault" departLane="random" />
	<vehicle id="v221" depart="163.46" route="sr1064" type="CarDefault" departLane="random" />
	<vehicle id="v11" depart="164" route="sr1064" type="CarDefault" departLane="random" />
	<vehicle id="v1265" depart="164.78" route="sr1065" type="CarDefault" departLane="random" />
	<vehicle id="v2368" depart="165.48" route="sr1066" type="CarDefault" departLane="random" />
	<vehicle id="v222" depart="167.27" route="sr1064" type="CarDefault" departLane="random" />
	<vehicle id="v1266" depart="168.36" route="sr1065" type="CarDefault" departLane="random" />
	<vehicle id="v2369" depart="168.86" route="sr1066" type="CarDefault" departLane="random" />
	<vehicle id="v223" depart="171.07" route="sr1064" type="CarDefault" departLane="random" />
	<vehicle id="v1267" depart="171.94" route="sr1065" type="CarDefault" departLane="random" />
	<vehicle id="v2370" depart="172.23" route="sr1066" type="CarDefault" departLane="random" />
	<vehicle id="v224" depart="174.87" route="sr1064" type="CarDefault" departLane="random" />
	<vehicle id="v1268" depart="175.52" route="sr1065" type="CarDefault" departLane="random" />
	<vehicle id="v2371" depart="175.61" route="sr1066" type="CarDefault" departLane="random" />
	<vehicle id="v225" depart="178.67" route="sr1064" type="CarDefault" departLane="random" />
	<vehicle id="v2372" depart="178.99" route="sr1066" type="CarDefault" departLane="random" />
	<vehicle id="v1269" depart="179.1" route="sr1065" type="CarDefault" departLane="random" />
	<vehicle id="v2373" depart="182.36" route="sr1066" type="CarDefault" departLane="random" />
	<vehicle id="v226" depart="182.47" route="sr1064" type="CarDefault" departLane="random" />
	<vehicle id="v1270" depart="182.69" route="sr1065" type="CarDefault" departLane="random" />
	<vehicle id="v2374" depart="185.74" route="sr1066" type="CarDefault" departLane="random" />
	<vehicle id="v227" depart="186.27" route="sr1064" type="CarDefault" departLane="random" />
	<vehicle id="v1271" depart="186.27" route="sr1065" type="CarDefault" departLane="random" />
	<vehicle id="v12" depart="188" route="sr1064" type="CarDefault" departLane="random" />
	<vehicle id="v2375" depart="189.12" route="sr1066" type="CarDefault" departLane="random" />
	<vehicle id="v1272" depart="189.85" route="sr1065" type="CarDefault" departLane="random" />
	<vehicle id="v228" depart="190.07" route="sr1064" type="CarDefault" departLane="random" />
	<vehicle id="v2376" depart="192.5" route="sr1066" type="CarDefault" departLane="random" />
	<vehicle id="v1273" depart="193.43" route="sr1065" type="CarDefault" departLane="random" />
	<vehicle id="v229" depart="193.88" route="sr1064" type="CarDefault" departLane="random" />
	<vehicle id="v2231" depart="194" route="sr1066" type="CarDefault" departLane="random" />
	<vehicle id="v2377" depart="195.87" route="sr1066" type="CarDefault" departLane="random" />
	<vehicle id="v1274" depart="197.01" route="sr1065" type="CarDefault" departLane="random" />
	<vehicle id="v230" depart="197.68" route="sr1064" type="CarDefault" departLane="random" />
	<vehicle id="v2378" depart="199.25" route="sr1066" type="CarDefault" departLane="random" />
	<vehicle id="v1275" depart="200.6" route="sr1065" type="CarDefault" departLane="random" />
	<vehicle id="v231" depart="201.48" route="sr1064" type="CarDefault" departLane="random" />
	<vehicle id="v2379" depart="202.63" route="sr1066" type="CarDefault" departLane="random" />
	<vehicle id="v1276" depart="204.18" route="sr1065" type="CarDefault" departLane="random" />
	<vehicle id="v232" depart="205.28" route="sr1064" type="CarDefault" departLane="random" />
	<vehicle id="v2380" depart="206.0" route="sr1066" type="CarDefault" departLane="random" />
	<vehicle id="v1277" depart="207.76" route="sr1065" type="CarDefault" departLane="random" />
	<vehicle id="v233" depart="209.08" route="sr1064" type="CarDefault" departLane="random" />
	<vehicle id="v2381" depart="209.38" route="sr1066" type="CarDefault" departLane="random" />
	<vehicle id="v1278" depart="211.34" route="sr1065" type="CarDefault" departLane="random" />
	<vehicle id="v2382" depart="212.76" route="sr1066" type="CarDefault" departLane="random" />
	<vehicle id="v234" depart="212.88" route="sr1064" type="CarDefault" departLane="random" />
	<vehicle id="v1279" depart="214.93" route="sr1065" type="CarDefault" departLane="random" />
	<vehicle id="v2383" depart="216.14" route="sr1066" type="CarDefault" departLane="random" />
	<vehicle id="v235" depart="216.68" route="sr1064" type="CarDefault" departLane="random" />
	<vehicle id="v1280" depart="218.51" route="sr1065" type="CarDefault" departLane="random" />
	<vehicle id="v2384" depart="219.51" route="sr1066" type="CarDefault" departLane="random" />
	<vehicle id="v236" depart="220.49" route="sr1064" type="CarDefault" departLane="random" />
	<vehicle id="v13" depart="222" route="sr1064" type="CarDefault" departLane="random" />
	<vehicle id="v1281" depart="222.09" route="sr1065" type="CarDefault" departLane="random" />
	<vehicle id="v2385" depart="222.89" route="sr1066" type="CarDefault" departLane="random" />
	<vehicle id="v237" depart="224.29" route="sr1064" type="CarDefault" departLane="random" />
	<vehicle id="v1282" depart="225.67" route="sr1065" type="CarDefault" departLane="random" />
	<vehicle id="v2386" depart="226.27" route="sr1066" type="CarDefault" departLane="random" />
	<vehicle id="v238" depart="228.09" route="sr1064" type="CarDefault" departLane="random" />
	<vehicle id="v1283" depart="229.25" route="sr1065" type="CarDefault" departLane="random" />
	<vehicle id="v2387" depart="229.64" route="sr1066" type="CarDefault" departLane="random" />
	<vehicle id="v239" depart="231.89" route="sr1064" type="CarDefault" departLane="random" />
	<vehicle id="v1284" depart="232.84" route="sr1065" type="CarDefault" departLane="random" />
	<vehicle id="v2388" depart="233.02" route="sr1066" type="CarDefault" departLane="random" />
	<vehicle id="v240" depart="235.69" route="sr1064" type="CarDefault" departLane="random" />
	<vehicle id="v2389" depart="236.4" route="sr1066" type="CarDefault" departLane="random" />
	<vehicle id="v1285" depart="236.42" route="sr1065" type="CarDefault" departLane="random" />
	<vehicle id="v1129" depart="239" route="sr1065" type="CarDefault" departLane="random" />
	<vehicle id="v241" depart="239.49" route="sr1064" type="CarDefault" departLane="random" />
	<vehicle id="v2390" depart="239.77" route="sr1066" type="CarDefault" departLane="random" />
	<vehicle id="v1286" depart="240.0" route="sr1065" type="CarDefault" departLane="random" />
	<vehicle id="v1130" depart="241" route="sr1065" type="CarDefault" departLane="random" />
	<vehicle id="v14" depart="243" route="sr1064" type="CarDefault" departLane="random" />
	<vehicle id="v2391" depart="243.15" route="sr1066" type="CarDefault" departLane="random" />
	<vehicle id="v242" depart="243.29" route="sr1064" type="CarDefault" departLane="random" />
	<vehicle id="v1287" depart="243.58" route="sr1065" type="CarDefault" departLane="random" />
	<vehicle id="v2392" depart="246.53" route="sr1066" type="CarDefault" departLane="random" />
	<vehicle id="v243" depart="247.1" route="sr1064" type="CarDefault" departLane="random" />
	<vehicle id="v1288" depart="247.16" route="sr1065" type="CarDefault" departLane="random" />
	<vehicle id="v2393" depart="249.91" route="sr1066" type="CarDefault" departLane="random" />
	<vehicle id="v1289" depart="250.75" route="sr1065" type="CarDefault" departLane="random" />
	<vehicle id="v244" depart="250.9" route="sr1064" type="CarDefault" departLane="random" />
	<vehicle id="v2394" depart="253.28" route="sr1066" type="CarDefault" departLane="random" />
	<vehicle id="v2232" depart="254" route="sr1066" type="CarDefault" departLane="random" />
	<vehicle id="v1290" depart="254.33" route="sr1065" type="CarDefault" departLane="random" />
	<vehicle id="v245" depart="254.7" route="sr1064" type="CarDefault" departLane="random" />
	<vehicle id="v2395" depart="256.66" route="sr1066" type="CarDefault" departLane="random" />
	<vehicle id="v1291" depart="257.91" route="sr1065" type="CarDefault" departLane="random" />
	<vehicle id="v246" depart="258.5" route="sr1064" type="CarDefault" departLane="random" />
	<vehicle id="v2396" depart="260.04" route="sr1066" type="CarDefault" departLane="random" />
	<vehicle id="v1292" depart="261.49" route="sr1065" type="CarDefault" departLane="random" />
	<vehicle id="v247" depart="262.3" route="sr1064" type="CarDefault" departLane="random" />
	<vehicle id="v2397" depart="263.41" route="sr1066" type="CarDefault" departLane="random" />
	<vehicle id="v1293" depart="265.07" route="sr1065" type="CarDefault" departLane="random" />
	<vehicle id="v248" depart="266.1" route="sr1064" type="CarDefault" departLane="random" />
	<vehicle id="v2398" depart="266.79" route="sr1066" type="CarDefault" departLane="random" />
	<vehicle id="v1294" depart="268.66" route="sr1065" type="CarDefault" departLane="random" />
	<vehicle id="v249" depart="269.9" route="sr1064" type="CarDefault" departLane="random" />
	<vehicle id="v2399" depart="270.17" route="sr1066" type="CarDefault" departLane="random" />
	<vehicle id="v1295" depart="272.24" route="sr1065" type="CarDefault" departLane="random" />
	<vehicle id="v2400" depart="273.55" route="sr1066" type="CarDefault" departLane="random" />
	<vehicle id="v250" depart="273.71" route="sr1064" type="CarDefault" departLane="random" />
	<vehicle id="v1296" depart="275.82" route="sr1065" type="CarDefault" departLane="random" />
	<vehicle id="v2401" depart="276.92" route="sr1066" type="CarDefault" departLane="random" />
	<vehicle id="v251" depart="277.51" route="sr1064" type="CarDefault" departLane="random" />
	<vehicle id="v1297" depart="279.4" route="sr1065" type="CarDefault" departLane="random" />
	<vehicle id="v2402" depart="280.3" route="sr1066" type="CarDefault" departLane="random" />
	<vehicle id="v252" depart="281.31" route="sr1064" type="CarDefault" departLane="random" />
	<vehicle id="v1298" depart="282.99" route="sr1065" type="CarDefault" departLane="random" />
	<vehicle id="v2403" depart="283.68" route="sr1066" type="CarDefault" departLane="random" />
	<vehicle id="v253" depart="285.11" route="sr1064" type="CarDefault" departLane="random" />
	<vehicle id="v1299" depart="286.57" route="sr1065" type="CarDefault" departLane="random" />
	<vehicle id="v1131" depart="287" route="sr1065" type="CarDefault" departLane="random" />
	<vehicle id="v2404" depart="287.05" route="sr1066" type="CarDefault" departLane="random" />
	<vehicle id="v254" depart="288.91" route="sr1064" type="CarDefault" departLane="random" />
	<vehicle id="v15" depart="290" route="sr1064" type="CarDefault" departLane="random" />
	<vehicle id="v1300" depart="290.15" route="sr1065" type="CarDefault" departLane="random" />
	<vehicle id="v2405" depart="290.43" route="sr1066" type="CarDefault" departLane="random" />
	<vehicle id="v255" depart="292.71" route="sr1064" type="CarDefault" departLane="random" />
	<vehicle id="v1301" depart="293.73" route="sr1065" type="CarDefault" departLane="random" />
	<vehicle id="v2406" depart="293.81" route="sr1066" type="CarDefault" departLane="random" />
	<vehicle id="v256" depart="296.52" route="sr1064" type="CarDefault" departLane="random" />
	<vehicle id="v2407" depart="297.19" route="sr1066" type="CarDefault" departLane="random" />
	<vehicle id="v1302" depart="297.31" route="sr1065" type="CarDefault" departLane="random" />
	<vehicle id="v16" depart="298" route="sr1064" type="CarDefault" departLane="random" />
	<vehicle id="v257" depart="300.32" route="sr1064" type="CarDefault" departLane="random" />
	<vehicle id="v2408" depart="300.56" route="sr1066" type="CarDefault" departLane="random" />
	<vehicle id="v1303" depart="300.9" route="sr1065" type="CarDefault" departLane="random" />
	<vehicle id="v2409" depart="303.94" route="sr1066" type="CarDefault" departLane="random" />
	<vehicle id="v2233" depart="304" route="sr1066" type="CarDefault" departLane="random" />
	<vehicle id="v258" depart="304.12" route="sr1064" type="CarDefault" departLane="random" />
	<vehicle id="v1304" depart="304.48" route="sr1065" type="CarDefault" departLane="random" />
	<vehicle id="v2410" depart="307.32" route="sr1066" type="CarDefault" departLane="random" />
	<vehicle id="v259" depart="307.92" route="sr1064" type="CarDefault" departLane="random" />
	<vehicle id="v1305" depart="308.06" route="sr1065" type="CarDefault" departLane="random" />
	<vehicle id="v2411" depart="310.69" route="sr1066" type="CarDefault" departLane="random" />
	<vehicle id="v1306" depart="311.64" route="sr1065" type="CarDefault" departLane="random" />
	<vehicle id="v260" depart="311.72" route="sr1064" type="CarDefault" departLane="random" />
	<vehicle id="v1132" depart="313" route="sr1065" type="CarDefault" departLane="random" />
	<vehicle id="v2412" depart="314.07" route="sr1066" type="CarDefault" departLane="random" />
	<vehicle id="v1307" depart="315.22" route="sr1065" type="CarDefault" departLane="random" />
	<vehicle id="v261" depart="315.52" route="sr1064" type="CarDefault" departLane="random" />
	<vehicle id="v2413" depart="317.45" route="sr1066" type="CarDefault" departLane="random" />
	<vehicle id="v1308" depart="318.81" route="sr1065" type="CarDefault" departLane="random" />
	<vehicle id="v262" depart="319.32" route="sr1064" type="CarDefault" departLane="random" />
	<vehicle id="v2414" depart="320.83" route="sr1066" type="CarDefault" departLane="random" />
	<vehicle id="v1309" depart="322.39" route="sr1065" type="CarDefault" departLane="random" />
	<vehicle id="v263" depart="323.13" route="sr1064" type="CarDefault" departLane="random" />
	<vehicle id="v2415" depart="324.2" route="sr1066" type="CarDefault" departLane="random" />
	<vehicle id="v1310" depart="325.97" route="sr1065" type="CarDefault" departLane="random" />
	<vehicle id="v264" depart="326.93" route="sr1064" type="CarDefault" departLane="random" />
	<vehicle id="v2416" depart="327.58" route="sr1066" type="CarDefault" departLane="random" />
	<vehicle id="v1311" depart="329.55" route="sr1065" type="CarDefault" departLane="random" />
	<vehicle id="v265" depart="330.73" route="sr1064" type="CarDefault" departLane="random" />
	<vehicle id="v2417" depart="330.96" route="sr1066" type="CarDefault" departLane="random" />
	<vehicle id="v1133" depart="331" route="sr1065" type="CarDefault" departLane="random" />
	<vehicle id="v1312" depart="333.13" route="sr1065" type="CarDefault" departLane="random" />
	<vehicle id="v2418" depart="334.33" route="sr1066" type="CarDefault" departLane="random" />
	<vehicle id="v266" depart="334.53" route="sr1064" type="CarDefault" departLane="random" />
	<vehicle id="v1313" depart="336.72" route="sr1065" type="CarDefault" departLane="random" />
	<vehicle id="v2419" depart="337.71" route="sr1066" type="CarDefault" departLane="random" />