<?xml version='1.0' encoding='utf-8'?>
<routes>
	<vType accel="3.0" decel="6.0" id="CarDefault" length="5.0" minGap="2.5" maxSpeed="50.0" sigma="0.5" />
	<route id="r11601" edges="288 287 739 415 233 886 774 502 627 628 405 86 894 830 253 252 269 268 387 386 383 821 822" fromJunction="241" toJunction="316" />
	<route id="r11603" edges="488 984 985 989 990 415 233 886 774 502 18 17 16 15 62 110 546 547 548 549 891 766 550 551 552 99 98 867 706" fromJunction="357" toJunction="248" />
	<route id="sr7206" edges="794 919 920 921 922 712 487 482 483 710 709 932 933 934 935 426 425 769 513 890 891 766 1018 1019 1020 1021 1022 898 961 1017 960 706" fromJunction="292" toJunction="248" />
	<route id="sr7205" edges="488 975 976 743 744 745 741 742 430 210 12 11 341 627 628 967 968 957 958 511 512 513 890 891 766 1018 1019 1020 1021 1022 898 961 1017 960 706" fromJunction="357" toJunction="248" />
	<route id="sr7204" edges="288 287 739 415 233 886 774 502 892 893 503 13 229 972 479 480 922 712 487 711 254 386 390 389 388 822" fromJunction="241" toJunction="316" />
	<route id="r11602" edges="794 919 920 921 922 712 487 711 254 944 267 266 311 345 866 867 706" fromJunction="292" toJunction="248" />
	<vehicle id="v2887" depart="0.0" route="sr7204" type="CarDefault" departLane="random" />
	<vehicle id="v4096" depart="0.0" route="sr7205" type="CarDefault" departLane="random" />
	<vehicle id="v5168" depart="0.0" route="sr7206" type="CarDefault" departLane="random" />
	<vehicle id="v4986" depart="1" route="sr7206" type="CarDefault" departLane="random" />
	<vehicle id="v5169" depart="4.98" route="sr7206" type="CarDefault" departLane="random" />
	<vehicle id="v2888" depart="5.97" route="sr7204" type="CarDefault" departLane="random" />
	<vehicle id="v4097" depart="8.11" route="sr7205" type="CarDefault" departLane="random" />
	<vehicle id="v5170" depart="9.96" route="sr7206" type="CarDefault" departLane="random" />
	<vehicle id="v2889" depart="11.94" route="sr7204" type="CarDefault" departLane="random" />
	<vehicle id="v5171" depart="14.94" route="sr7206" type="CarDefault" departLane="random" />
	<vehicle id="v4098" depart="16.22" route="sr7205" type="CarDefault" departLane="random" />
	<vehicle id="v2890" depart="17.91" route="sr7204" type="CarDefault" departLane="random" />
	<vehicle id="v5172" depart="19.92" route="sr7206" type="CarDefault" departLane="random" />
	<vehicle id="v2891" depart="23.88" route="sr7204" type="CarDefault" departLane="random" />
	<vehicle id="v4099" depart="24.32" route="sr7205" type="CarDefault" departLane="random" />
	<vehicle id="v5173" depart="24.9" route="sr7206" type="CarDefault" departLane="random" />
	<vehicle id="v2892" depart="29.85" route="sr7204" type="CarDefault" departLane="random" />
	<vehicle id="v5174" depart="29.88" route="sr7206" type="CarDefault" departLane="random" />
	<vehicle id="v4100" depart="32.43" route="sr7205" type="CarDefault" departLane="random" />
	<vehicle id="v4987" depart="34" route="sr7206" type="CarDefault" departLane="random" />
	<vehicle id="v5175" depart="34.85" route="sr7206" type="CarDefault" departLane="random" />
	<vehicle id="v2893" depart="35.82" route="sr7204" type="CarDefault" departLane="random" />
	<vehicle id="v5176" depart="39.83" route="sr7206" type="CarDefault" departLane="random" />
	<vehicle id="v4101" depart="40.54" route="sr7205" type="CarDefault" departLane="random" />
	<vehicle id="v2894" depart="41.79" route="sr7204" type="CarDefault" departLane="random" />
	<vehicle id="v5177" depart="44.81" route="sr7206" type="CarDefault" departLane="random" />
	<vehicle id="v2895" depart="47.76" route="sr7204" type="CarDefault" departLane="random" />
	<vehicle id="v4102" depart="48.65" route="sr7205" type="CarDefault" departLane="random" />
	<vehicle id="v5178" depart="49.79" route="sr7206" type="CarDefault" departLane="random" />
	<vehicle id="v2896" depart="53.73" route="sr7204" type="CarDefault" departLane="random" />
	<vehicle id="v5179" depart="54.77" route="sr7206" type="CarDefault" departLane="random" />
	<vehicle id="v4103" depart="56.76" route="sr7205" type="CarDefault" departLane="random" />
	<vehicle id="v2897" depart="59.7" route="sr7204" type="CarDefault" departLane="random" />
	<vehicle id="v5180" depart="59.75" route="sr7206" type="CarDefault" departLane="random" />
	<vehicle id="v5181" depart="64.73" route="r11602" type="CarDefault" departLane="random" />
	<vehicle id="v4104" depart="64.86" route="r11603" type="CarDefault" departLane="random" />
	<vehicle id="v2898" depart="65.67" route="r11601" type="CarDefault" departLane="random" />
	<vehicle id="v5182" depart="69.71" route="r11602" type="CarDefault" departLane="random" />
	<vehicle id="v2899" depart="71.64" route="r11601" type="CarDefault" departLane="random" />
	<vehicle id="v4105" depart="72.97" route="r11603" type="CarDefault" departLane="random" />
	<vehicle id="v5183" depart="74.69" route="r11602" type="CarDefault" departLane="random" />
	<vehicle id="v2900" depart="77.61" route="r11601" type="CarDefault" departLane="random" />
	<vehicle id="v5184" depart="79.67" route="r11602" type="CarDefault" departLane="random" />
	<vehicle id="v4106" depart="81.08" route="r11603" type="CarDefault" departLane="random" />
	<vehicle id="v2901" depart="83.58" route="r11601" type="CarDefault" departLane="random" />
	<vehicle id="v5185" depart="84.65" route="r11602" type="CarDefault" departLane="random" />
	<vehicle id="v4107" depart="89.19" route="r11603" type="CarDefault" departLane="random" />
	<vehicle id="v2902" depart="89.55" route="r11601" type="CarDefault" departLane="random" />
	<vehicle id="v5186" depart="89.63" route="r11602" type="CarDefault" departLane="random" />
	<vehicle id="v4988" depart="90" route="r11602" type="CarDefault" departLane="random" />
	<vehicle id="v5187" depart="94.61" route="r11602" type="CarDefault" departLane="random" />
	<vehicle id="v2903" depart="95.52" route="r11601" type="CarDefault" departLane="random" />
	<vehicle id="v4108" depart="97.3" route="r11603" type="CarDefault" departLane="random" />
	<vehicle id="v5188" depart="99.59" route="r11602" type="CarDefault" departLane="random" />
	<vehicle id="v2904" depart="101.49" route="r11601" type="CarDefault" departLane="random" />
	<vehicle id="v5189" depart="104.56" route="r11602" type="CarDefault" departLane="random" />
	<vehicle id="v4109" depart="105.41" route="r11603" type="CarDefault" departLane="random" />
	<vehicle id="v2905" depart="107.46" route="r11601" type="CarDefault" departLane="random" />
	<vehicle id="v5190" depart="109.54" route="r11602" type="CarDefault" departLane="random" />
	<vehicle id="v2906" depart="113.43" route="r11601" type="CarDefault" departLane="random" />
	<vehicle id="v4110" depart="113.51" route="r11603" type="CarDefault" departLane="random" />
	<vehicle id="v5191" depart="114.52" route="r11602" type="CarDefault" departLane="random" />
	<vehicle id="v4989" depart="117" route="r11602" type="CarDefault" departLane="random" />
	<vehicle id="v2907" depart="119.4" route="r11601" type="CarDefault" departLane="random" />
	<vehicle id="v5192" depart="119.5" route="r11602" type="CarDefault" departLane="random" />
	<vehicle id="v4111" depart="121.62" route="r11603" type="CarDefault" departLane="random" />
	<vehicle id="v5193" depart="124.48" route="r11602" type="CarDefault" departLane="random" />
	<vehicle id="v2908" depart="125.37" route="r11601" type="CarDefault" departLane="random" />
	<vehicle id="v5194" depart="129.46" route="r11602" type="CarDefault" departLane="random" />
	<vehicle id="v4112" depart="129.73" route="r11603" type="CarDefault" departLane="random" />
	<vehicle id="v2909" depart="131.34" route="r11601" type="CarDefault" departLane="random" />
	<vehicle id="v5195" depart="134.44" route="r11602" type="CarDefault" departLane="random" />
	<vehicle id="v2910" depart="137.31" route="r11601" type="CarDefault" departLane="random" />
	<vehicle id="v4113" depart="137.84" route="r11603" type="CarDefault" departLane="random" />
	<vehicle id="v5196" depart="139.42" route="r11602" type="CarDefault" departLane="random" />
	<vehicle id="v2911" depart="143.28" route="r11601" type="CarDefault" departLane="random" />
	<vehicle id="v5197" depart="144.4" route="r11602" type="CarDefault" departLane="random" />
	<vehicle id="v4114" depart="145.95" route="r11603" type="CarDefault" departLane="random" />
	<vehicle id="v2912" depart="149.25" route="r11601" type="CarDefault" departLane="random" />
	<vehicle id="v5198" depart="149.38" route="r11602" type="CarDefault" departLane="random" />
	<vehicle id="v4115" depart="154.05" route="sr7205" type="CarDefault" departLane="random" />
	<vehicle id="v5199" depart="154.36" route="sr7206" type="CarDefault" departLane="random" />
	<vehicle id="v2913" depart="155.22" route="sr7204" type="CarDefault" departLane="random" />
	<vehicle id="v5200" depart="159.34" route="sr7206" type="CarDefault" departLane="random" />
	<vehicle id="v4991" depart="160" route="sr7206" type="CarDefault" departLane="random" />
	<vehicle id="v2914" depart="161.19" route="sr7204" type="CarDefault" departLane="random" />
	<vehicle id="v4116" depart="162.16" route="sr7205" type="CarDefault" departLane="random" />
	<vehicle id="v4990" depart="164" route="sr7206" type="CarDefault" departLane="random" />
	<vehicle id="v5201" depart="164.32" route="sr7206" type="CarDefault" departLane="random" />
	<vehicle id="v2915" depart="167.16" route="sr7204" type="CarDefault" departLane="random" />
	<vehicle id="v5202" depart="169.29" route="sr7206" type="CarDefault" departLane="random" />
	<vehicle id="v4117" depart="170.27" route="sr7205" type="CarDefault" departLane="random" />
	<vehicle id="v2916" depart="173.13" route="sr7204" type="CarDefault" departLane="random" />
	<vehicle id="v5203" depart="174.27" route="sr7206" type="CarDefault" departLane="random" />
	<vehicle id="v4118" depart="178.38" route="sr7205" type="CarDefault" departLane="random" />
	<vehicle id="v2917" depart="179.1" route="sr7204" type="CarDefault" departLane="random" />
	<vehicle id="v5204" depart="179.25" route="sr7206" type="CarDefault" departLane="random" />
	<vehicle id="v4993" depart="181" route="sr7206" type="CarDefault" departLane="random" />
	<vehicle id="v5205" depart="184.23" route="sr7206" type="CarDefault" departLane="random" />
	<vehicle id="v4992" depart="185" route="sr7206" type="CarDefault" departLane="random" />
	<vehicle id="v2918" depart="185.07" route="sr7204" type="CarDefault" departLane="random" />
	<vehicle id="v4119" depart="186.49" route="sr7205" type="CarDefault" departLane="random" />
	<vehicle id="v5206" depart="189.21" route="sr7206" type="CarDefault" departLane="random" />
	<vehicle id="v2919" depart="191.04" route="sr7204" type="CarDefault" departLane="random" />
	<vehicle id="v5207" depart="194.19" route="sr7206" type="CarDefault" departLane="random" />
	<vehicle id="v4120" depart="194.59" route="sr7205" type="CarDefault" departLane="random" />
	<vehicle id="v2920" depart="197.01" route="sr7204" type="CarDefault" departLane="random" />
	<vehicle id="v5208" depart="199.17" route="sr7206" type="CarDefault" departLane="random" />
	<vehicle id="v4121" depart="202.7" route="sr7205" type="CarDefault" departLane="random" />
	<vehicle id="v2921" depart="202.99" route="sr7204" type="CarDefault" departLane="random" />
	<vehicle id="v5209" depart="204.15" route="sr7206" type="CarDefault" departLane="random" />
	<vehicle id="v2922" depart="208.96" route="sr7204" type="CarDefault" departLane="random" />
	<vehicle id="v5210" depart="209.13" route="sr7206" type="CarDefault" departLane="random" />
	<vehicle id="v4122" depart="210.81" route="r11603" type="CarDefault" departLane="random" />
	<vehicle id="v5211" depart="214.11" route="r11602" type="CarDefault" departLane="random" />
	<vehicle id="v2923" depart="214.93" route="r11601" type="CarDefault" departLane="random" />
	<vehicle id="v4123" depart="218.92" route="r11603" type="CarDefault" departLane="random" />
	<vehicle id="v5212" depart="219.09" route="r11602" type="CarDefault" departLane="random" />
	<vehicle id="v2924" depart="220.9" route="r11601" type="CarDefault" departLane="random" />
	<vehicle id="v5213" depart="224.07" route="r11602" type="CarDefault" departLane="random" />
	<vehicle id="v2925" depart="226.87" route="r11601" type="CarDefault" departLane="random" />
	<vehicle id="v4124" depart="227.03" route="r11603" type="CarDefault" departLane="random" />
	<vehicle id="v5214" depart="229.05" route="r11602" type="CarDefault" departLane="random" />
	<vehicle id="v2926" depart="232.84" route="r11601" type="CarDefault" departLane="random" />
	<vehicle id="v5215" depart="234.02" route="r11602" type="CarDefault" departLane="random" />
	<vehicle id="v4994" depart="235" route="r11602" type="CarDefault" departLane="random" />
	<vehicle id="v4125" depart="235.14" route="r11603" type="CarDefault" departLane="random" />
	<vehicle id="v2927" depart="238.81" route="r11601" type="CarDefault" departLane="random" />
	<vehicle id="v5216" depart="239.0" route="r11602" type="CarDefault" departLane="random" />
	<vehicle id="v4126" depart="243.24" route="sr7205" type="CarDefault" departLane="random" />
	<vehicle id="v5217" depart="243.98" route="sr7206" type="CarDefault" departLane="random" />
	<vehicle id="v2928" depart="244.78" route="sr7204" type="CarDefault" departLane="random" />
	<vehicle id="v5218" depart="248.96" route="sr7206" type="CarDefault" departLane="random" />
	<vehicle id="v2929" depart="250.75" route="sr7204" type="CarDefault" departLane="random" />
	<vehicle id="v4127" depart="251.35" route="sr7205" type="CarDefault" departLane="random" />
	<vehicle id="v5219" depart="253.94" route="sr7206" type="CarDefault" departLane="random" />
	<vehicle id="v2930" depart="256.72" route="sr7204" type="CarDefault" departLane="random" />
	<vehicle id="v5220" depart="258.92" route="sr7206" type="CarDefault" departLane="random" />
	<vehicle id="v4995" depart="259" route="sr7206" type="CarDefault" departLane="random" />
	<vehicle id="v4128" depart="259.46" route="sr7205" type="CarDefault" departLane="random" />
	<vehicle id="v2931" depart="262.69" route="sr7204" type="CarDefault" departLane="random" />
	<vehicle id="v5221" depart="263.9" route="sr7206" type="CarDefault" departLane="random" />
	<vehicle id="v4129" depart="267.57" route="sr7205" type="CarDefault" departLane="random" />
	<vehicle id="v2932" depart="268.66" route="sr7204" type="CarDefault" departLane="random" />
	<vehicle id="v5222" depart="268.88" route="sr7206" type="CarDefault" departLane="random" />
	<vehicle id="v4996" depart="271" route="sr7206" type="CarDefault" departLane="random" />
	<vehicle id="v5223" depart="273.86" route="sr7206" type="CarDefault" departLane="random" />
	<vehicle id="v2933" depart="274.63" route="sr7204" type="CarDefault" departLane="random" />
	<vehicle id="v4130" depart="275.68" route="sr7205" type="CarDefault" departLane="random" />
	<vehicle id="v5224" depart="278.84" route="sr7206" type="CarDefault" departLane="random" />
	<vehicle id="v2934" depart="280.6" route="sr7204" type="CarDefault" departLane="random" />
	<vehicle id="v4131" depart="283.78" route="sr7205" type="CarDefault" departLane="random" />
	<vehicle id="v5225" depart="283.82" route="sr7206" type="CarDefault" departLane="random" />
	<vehicle id="v2935" depart="286.57" route="sr7204" type="CarDefault" departLane="random" />
	<vehicle id="v5226" depart="288.8" route="sr7206" type="CarDefault" departLane="random" />
	<vehicle id="v4997" depart="290" route="sr7206" type="CarDefault" departLane="random" />
	<vehicle id="v4132" depart="291.89" route="sr7205" type="CarDefault" departLane="random" />
	<vehicle id="v2936" depart="292.54" route="sr7204" type="CarDefault" departLane="random" />
	<vehicle id="v5227" depart="293.78" route="sr7206" type="CarDefault" departLane="random" />
	<vehicle id="v2937" depart="298.51" route="sr7204" type="CarDefault" departLane="random" />
	<vehicle id="v5228" depart="298.76" route="sr7206" type="CarDefault" departLane="random" />
	<vehicle id="v4133" depart="300.0" route="sr7205" type="CarDefault" departLane="random" />
	<vehicle id="v5229" depart="303.73" route="sr7206" type="CarDefault" departLane="random" />
	<vehicle id="v2938" depart="304.48" route="sr7204" type="CarDefault" departLane="random" />
	<vehicle id="v4134" depart="308.11" route="sr7205" type="CarDefault" departLane="random" />
	<vehicle id="v5230" depart="308.71" route="sr7206" type="CarDefault" departLane="random" />
	<vehicle id="v2939" depart="310.45" route="sr7204" type="CarDefault" departLane="random" />
	<vehicle id="v4998" depart="311" route="sr7206" type="CarDefault" departLane="random" />
	<vehicle id="v5231" depart="313.69" route="sr7206" type="CarDefault" departLane="random" />
	<vehicle id="v4135" depart="316.22" route="sr7205" type="CarDefault" departLane="random" />
	<vehicle id="v2940" depart="316.42" route="sr7204" type="CarDefault" departLane="random" />
	<vehicle id="v5232" depart="318.67" route="sr7206" type="CarDefault" departLane="random" />
	<vehicle id="v2941" depart="322.39" route="sr7204" type="CarDefault" departLane="random" />
	<vehicle id="v5233" depart="323.65" route="sr7206" type="CarDefault" departLane="random" />
	<vehicle id="v4136" depart="324.32" route="sr7205" type="CarDefault" departLane="random" />
	<vehicle id="v2942" depart="328.36" route="sr7204" type="CarDefault" departLane="random" />
	<vehicle id="v5234" depart="328.63" route="sr7206" type="CarDefault" departLane="random" />
	<vehicle id="v4137" depart="332.43" route="sr7205" type="CarDefault" departLane="random" />
	<vehicle id="v5235" depart="333.61" route="sr7206" type="CarDefault" departLane="random" />
	<vehicle id="v2943" depart="334.33" route="sr7204" type="CarDefault" departLane="random" />
	<vehicle id="v5236" depart="338.59" route="sr7206" type="CarDefault" departLane="random" />
	<vehicle id="v2944" depart="340.3" route="sr7204" type="CarDefault" departLane="random" />
	<vehicle id="v4138" depart="340.54" route="sr7205" type="CarDefault" departLane="random" />
	<vehicle id="v5237" depart="343.57" route="sr7206" type="CarDefault" departLane="random" />
	<vehicle id="v2945" depart="346.27" route="sr7204" type="CarDefault" departLane="random" />
	<vehicle id="v5238" depart="348.55" route="sr7206" type="CarDefault" departLane="random" />
	<vehicle id="v4139" depart="348.65" route="sr7205" type="CarDefault" departLane="random" />
	<vehicle id="v2946" depart="352.24" route="sr7204" type="CarDefault" departLane="random" />
	<vehicle id="v5239" depart="353.53" route="sr7206" type="CarDefault" departLane="random" />
	<vehicle id="v5000" depart="356" route="sr7206" type="CarDefault" departLane="random" />
	<vehicle id="v4140" depart="356.76" route="sr7205" type="CarDefault" departLane="random" />
	<vehicle id="v2947" depart="358.21" route="sr7204" type="CarDefault" departLane="random" />
	<vehicle id="v5240" depart="358.51" route="sr7206" type="CarDefault" departLane="random" />
	<vehicle id="v4999" depart="359" route="sr7206" type="CarDefault" departLane="random" />
	<vehicle id="v5241" depart="363.49" route="r11602" type="CarDefault" departLane="random" />
	<vehicle id="v2948" depart="364.18" route="r11601" type="CarDefault" departLane="random" />
	<vehicle id="v4141" depart="364.86" route="r11603" type="CarDefault" departLane="random" />
	<vehicle id="v5242" depart="368.46" route="r11602" type="CarDefault" departLane="random" />
	<vehicle id="v2949" depart="370.15" route="r11601" type="CarDefault" departLane="random" />
	<vehicle id="v5001" depart="371" route="r11602" type="CarDefault" departLane="random" />
	<vehicle id="v4142" depart="372.97" route="r11603" type="CarDefault" departLane="random" />
	<vehicle id="v5243" depart="373.44" route="r11602" type="CarDefault" departLane="random" />
	<vehicle id="v2950" depart="376.12" route="r11601" type="CarDefault" departLane="random" />
	<vehicle id="v5244" depart="378.42" route="r11602" type="CarDefault" departLane="random" />
	<vehicle id="v4143" depart="381.08" route="r11603" type="CarDefault" departLane="random" />
	<vehicle id="v2951" depart="382.09" route="r11601" type="CarDefault" departLane="random" />
	<vehicle id="v5245" depart="383.4" route="r11602" type="CarDefault" departLane="random" />
	<vehicle id="v2952" depart="388.06" route="r11601" type="CarDefault" departLane="random" />
	<vehicle id="v5246" depart="388.38" route="r11602" type="CarDefault" departLane="random" />
	<vehicle id="v4144" depart="389.19" route="r11603" type="CarDefault" departLane="random" />
	<vehicle id="v5247" depart="393.36" route="sr7206" type="CarDefault" departLane="random" />
	<vehicle id="v2953" depart="394.03" route="sr7204" type="CarDefault" departLane="random" />
	<vehicle id="v5003" depart="395" route="sr7206" type="CarDefault" departLane="random" />
	<vehicle id="v5002" depart="397" route="sr7206" type="CarDefault" departLane="random" />
	<vehicle id="v4145" depart="397.3" route="sr7205" type="CarDefault" departLane="random" />
	<vehicle id="v5248" depart="398.34" route="sr7206" type="CarDefault" departLane="random" />
	<vehicle id="v2954" depart="400.0" route="sr7204" type="CarDefault" departLane="random" />
	<vehicle id="v5249" depart="403.32" route="sr7206" type="CarDefault" departLane="random" />
	<vehicle id="v4146" depart="405.41" route="sr7205" type="CarDefault" departLane="random" />
	<vehicle id="v2955" depart="405.97" route="sr7204" type="CarDefault" departLane="random" />
	<vehicle id="v5250" depart="408.3" route="sr7206" type="CarDefault" departLane="random" />
	<vehicle id="v5004" depart="411" route="sr7206" type="CarDefault" departLane="random" />
	<vehicle id="v2956" depart="411.94" route="sr7204" type="CarDefault" departLane="random" />
	<vehicle id="v5251" depart="413.28" route="sr7206" type="CarDefault" departLane="random" />
	<vehicle id="v4147" depart="413.51" route="sr7205" type="CarDefault" departLane="random" />
	<vehicle id="v5005" depart="417" route="sr7206" type="CarDefault" departLane="random" />
	<vehicle id="v2957" depart="417.91" route="sr7204" type="CarDefault" departLane="random" />
	<vehicle id="v5252" depart="418.26" route="sr7206" type="CarDefault" departLane="random" />
	<vehicle id="v4148" depart="421.62" route="r11603" type="CarDefault" departLane="random" />
	<vehicle id="v5253" depart="423.24" route="r11602" type="CarDefault" departLane="random" />
	<vehicle id="v2958" depart="423.88" route="r11601" type="CarDefault" departLane="random" />
	<vehicle id="v5006" depart="425" route="r11602" type="CarDefault" departLane="random" />
	<vehicle id="v5254" depart="428.22" route="r11602" type="CarDefault" departLane="random" />
	<vehicle id="v4149" depart="429.73" route="r11603" type="CarDefault" departLane="random" />
	<vehicle id="v2959" depart="429.85" route="r11601" type="CarDefault" departLane="random" />
	<vehicle id="v5255" depart="433.2" route="r11602" type="CarDefault" departLane="random" />
	<vehicle id="v2960" depart="435.82" route="r11601" type="CarDefault" departLane="random" />
	<vehicle id="v4150" depart="437.84" route="r11603" type="CarDefault" departLane="random" />
	<vehicle id="v5256" depart="438.17" route="r11602" type="CarDefault" departLane="random" />
	<vehicle id="v2961" depart="441.79" route="r11601" type="CarDefault" departLane="random" />
	<vehicle id="v5257" depart="443.15" route="r11602" type="CarDefault" departLane="random" />
	<vehicle id="v4151" depart="445.95" route="r11603" type="CarDefault" departLane="random" />
	<vehicle id="v2962" depart="447.76" route="r11601" type="CarDefault" departLane="random" />
	<vehicle id="v5258" depart="448.13" route="r11602" type="CarDefault" departLane="random" />
	<vehicle id="v5007" depart="452" route="sr7206" type="CarDefault" departLane="random" />
	<vehicle id="v5259" depart="453.11" route="sr7206" type="CarDefault" departLane="random" />
	<vehicle id="v2963" depart="453.73" route="sr7204" type="CarDefault" departLane="random" />
	<vehicle id="v4152" depart="454.05" route="sr7205" type="CarDefault" departLane="random" />
	<vehicle id="v5260" depart="458.09" route="sr7206" type="CarDefault" departLane="random" />
	<vehicle id="v2964" depart="459.7" route="sr7204" type="CarDefault" departLane="random" />
	<vehicle id="v4153" depart="462.16" route="sr7205" type="CarDefault" departLane="random" />
	<vehicle id="v5261" depart="463.07" route="sr7206" type="CarDefault" departLane="random" />
	<vehicle id="v2965" depart="465.67" route="sr7204" type="CarDefault" departLane="random" />
	<vehicle id="v5262" depart="468.05" route="sr7206" type="CarDefault" departLane="random" />
	<vehicle id="v4154" depart="470.27" route="sr7205" type="CarDefault" departLane="random" />
	<vehicle id="v2966" depart="471.64" route="sr7204" type="CarDefault" departLane="random" />
	<vehicle id="v5263" depart="473.03" route="sr7206" type="CarDefault" departLane="random" />
	<vehicle id="v2967" depart="477.61" route="sr7204" type="CarDefault" departLane="random" />
	<vehicle id="v5008" depart="478" route="sr7206" type="CarDefault" departLane="random" />
	<vehicle id="v5264" depart="478.01" route="sr7206" type="CarDefault" departLane="random" />
	<vehicle id="v4155" depart="478.38" route="sr7205" type="CarDefault" departLane="random" />
	<vehicle id="v5009" depart="479" route="sr7206" type="CarDefault" departLane="random" />
	<vehicle id="v5265" depart="482.99" route="sr7206" type="CarDefault" departLane="random" />
	<vehicle id="v2968" depart="483.58" route="sr7204" type="CarDefault" departLane="random" />
	<vehicle id="v4156" depart="486.49" route="sr7205" type="CarDefault" departLane="random" />
	<vehicle id="v5266" depart="487.97" route="sr7206" type="CarDefault" departLane="random" />
	<vehicle id="v5010" depart="489" route="sr7206" type="CarDefault" departLane="random" />
	<vehicle id="v2969" depart="489.55" route="sr7204" type="CarDefault" departLane="random" />
	<vehicle id="v5267" depart="492.95" route="sr7206" type="CarDefault" departLane="random" />
	<vehicle id="v4157" depart="494.59" route="sr7205" type="CarDefault" departLane="random" />
	<vehicle id="v2970" depart="495.52" route="sr7204" type="CarDefault" departLane="random" />
	<vehicle id="v5268" depart="497.93" route="sr7206" type="CarDefault" departLane="random" />
	<vehicle id="v5011" depart="498" route="sr7206" type="CarDefault" departLane="random" />
	<vehicle id="v2971" depart="501.49" route="sr7204" type="CarDefault" departLane="random" />
	<vehicle id="v4158" depart="502.7" route="sr7205" type="CarDefault" departLane="random" />
	<vehicle id="v5269" depart="502.9" route="sr7206" type="CarDefault" departLane="random" />
	<vehicle id="v2972" depart="507.46" route="sr7204" type="CarDefault" departLane="random" />
	<vehicle id="v5270" depart="507.88" route="sr7206" type="CarDefault" departLane="random" />
	<vehicle id="v4159" depart="510.81" route="sr7205" type="CarDefault" departLane="random" />
	<vehicle id="v5271" depart="512.86" route="sr7206" type="CarDefault" departLane="random" />
	<vehicle id="v2973" depart="513.43" route="sr7204" type="CarDefault" departLane="random" />
	<vehicle id="v5012" depart="517" route="sr7206" type="CarDefault" departLane="random" />
	<vehicle id="v5272" depart="517.84" route="sr7206" type="CarDefault" departLane="random" />
	<vehicle id="v5013" depart="518" route="sr7206" type="CarDefault" departLane="random" />
	<vehicle id="v4160" depart="518.92" route="sr7205" type="CarDefault" departLane="random" />
	<vehicle id="v2974" depart="519.4" route="sr7204" type="CarDefault" departLane="random" />
	<vehicle id="v5014" depart="521" route="sr7206" type="CarDefault" departLane="random" />
	<vehicle id="v5273" depart="522.82" route="sr7206" type="CarDefault" departLane="random" />
	<vehicle id="v2975" depart="525.37" route="sr7204" type="CarDefault" departLane="random" />
	<vehicle id="v4161" depart="527.03" route="sr7205" type="CarDefault" departLane="random" />
	<vehicle id="v5274" depart="527.8" route="sr7206" type="CarDefault" departLane="random" />
	<vehicle id="v2976" depart="531.34" route="sr7204" type="CarDefault" departLane="random" />
	<vehicle id="v5275" depart="532.78" route="sr7206" type="CarDefault" departLane="random" />
	<vehicle id="v5015" depart="533" route="sr7206" type="CarDefault" departLane="random" />
	<vehicle id="v4162" depart="535.14" route="sr7205" type="CarDefault" departLane="random" />
	<vehicle id="v2977" depart="537.31" route="sr7204" type="CarDefault" departLane="random" />
	<vehicle id="v5276" depart="537.76" route="sr7206" type="CarDefault" departLane="random" />
	<vehicle id="v5017" depart="540" route="sr7206" type="CarDefault" departLane="random" />
	<vehicle id="v5277" depart="542.74" route="sr7206" type="CarDefault" departLane="random" />
	<vehicle id="v4163" depart="543.24" route="sr7205" type="CarDefault" departLane="random" />
	<vehicle id="v2978" depart="543.28" route="sr7204" type="CarDefault" departLane="random" />
	<vehicle id="v5278" depart="547.72" route="sr7206" type="CarDefault" departLane="random" />
	<vehicle id="v2979" depart="549.25" route="sr7204" type="CarDefault" departLane="random" />
	<vehicle id="v5016" depart="551" route="sr7206" type="CarDefault" departLane="random" />
	<vehicle id="v4164" depart="551.35" route="sr7205" type="CarDefault" departLane="random" />
	<vehicle id="v5279" depart="552.7" route="sr7206" type="CarDefault" departLane="random" />
	<vehicle id="v2980" depart="555.22" route="sr7204" type="CarDefault" departLane="random" />
	<vehicle id="v5280" depart="557.68" route="sr7206" type="CarDefault" departLane="random" />
	<vehicle id="v4165" depart="559.46" route="sr7205" type="CarDefault" departLane="random" />
	<vehicle id="v2981" depart="561.19" route="sr7204" type="CarDefault" departLane="random" />
	<vehicle id="v5281" depart="562.66" route="sr7206" type="CarDefault" departLane="random" />