<?xml version='1.0' encoding='utf-8'?>
<routes>
	<vType accel="3.0" decel="6.0" id="CarDefault" length="5.0" minGap="2.5" maxSpeed="50.0" sigma="0.5" />
	<route id="sr656" edges="604 605 579 580 306 543 544 350 602 76 75 72 71 74 73 59 68 192 191 190 189 188 69 70 272 347 287 632 365 366 603 353 354 239 447 448 23 58 38" fromJunction="226" toJunction="68" />
	<route id="sr654" edges="611 612 425 358 359 360 410 411 441 442 443 444 438 439 440 329 559 560 561 541 542 578 391 85 84 250 249 396" fromJunction="227" toJunction="295" />
	<route id="sr655" edges="124 66 65 64 63 76 75 72 71 151 150 149 148 147 26 233 232 86 88 87 173 243 311 312 24 111 10 110 103 102 431 313 436 420 211 95 94" fromJunction="139" toJunction="73" />
	<route id="r3836" edges="611 612 425 358 359 360 410 414 535 361 408 525 570 571 424 291 292 583 584 596 597 598 572 595 622 556 626 591 398 541 542 578 391 85 84 250 249 396" fromJunction="227" toJunction="295" />
	<route id="r3837" edges="124 66 65 64 63 76 75 72 71 151 150 149 478 234 132 131 130 129 577 322 323 83 219 218 184 1 89 231 260 193 194 213 212 237 236 235 225 99 109 211 95 94" fromJunction="139" toJunction="73" />
	<vehicle id="v0" depart="0.0" route="r3836" type="CarDefault" departLane="random" />
	<vehicle id="v981" depart="0.0" route="r3837" type="CarDefault" departLane="random" />
	<vehicle id="v1711" depart="0.0" route="sr656" type="CarDefault" departLane="random" />
	<vehicle id="v1712" depart="4.3" route="sr656" type="CarDefault" departLane="random" />
	<vehicle id="v982" depart="5.73" route="r3837" type="CarDefault" departLane="random" />
	<vehicle id="v1" depart="8.11" route="r3836" type="CarDefault" departLane="random" />
	<vehicle id="v1713" depart="8.6" route="sr656" type="CarDefault" departLane="random" />
	<vehicle id="v891" depart="9" route="r3837" type="CarDefault" departLane="random" />
	<vehicle id="v983" depart="11.46" route="r3837" type="CarDefault" departLane="random" />
	<vehicle id="v1714" depart="12.9" route="sr656" type="CarDefault" departLane="random" />
	<vehicle id="v2" depart="16.22" route="r3836" type="CarDefault" departLane="random" />
	<vehicle id="v984" depart="17.2" route="r3837" type="CarDefault" departLane="random" />
	<vehicle id="v1715" depart="17.2" route="sr656" type="CarDefault" departLane="random" />
	<vehicle id="v1716" depart="21.51" route="sr656" type="CarDefault" departLane="random" />
	<vehicle id="v985" depart="22.93" route="r3837" type="CarDefault" departLane="random" />
	<vehicle id="v3" depart="24.32" route="r3836" type="CarDefault" departLane="random" />
	<vehicle id="v1717" depart="25.81" route="sr656" type="CarDefault" departLane="random" />
	<vehicle id="v986" depart="28.66" route="r3837" type="CarDefault" departLane="random" />
	<vehicle id="v1718" depart="30.11" route="sr656" type="CarDefault" departLane="random" />
	<vehicle id="v1610" depart="31" route="sr656" type="CarDefault" departLane="random" />
	<vehicle id="v4" depart="32.43" route="r3836" type="CarDefault" departLane="random" />
	<vehicle id="v892" depart="33" route="r3837" type="CarDefault" departLane="random" />
	<vehicle id="v987" depart="34.39" route="r3837" type="CarDefault" departLane="random" />
	<vehicle id="v1719" depart="34.41" route="sr656" type="CarDefault" departLane="random" />
	<vehicle id="v1720" depart="38.71" route="sr656" type="CarDefault" departLane="random" />
	<vehicle id="v988" depart="40.13" route="r3837" type="CarDefault" departLane="random" />
	<vehicle id="v5" depart="40.54" route="r3836" type="CarDefault" departLane="random" />
	<vehicle id="v893" depart="41" route="r3837" type="CarDefault" departLane="random" />
	<vehicle id="v1721" depart="43.01" route="sr656" type="CarDefault" departLane="random" />
	<vehicle id="v989" depart="45.86" route="r3837" type="CarDefault" departLane="random" />
	<vehicle id="v1722" depart="47.31" route="sr656" type="CarDefault" departLane="random" />
	<vehicle id="v6" depart="48.65" route="r3836" type="CarDefault" departLane="random" />
	<vehicle id="v990" depart="51.59" route="r3837" type="CarDefault" departLane="random" />
	<vehicle id="v1723" depart="51.61" route="sr656" type="CarDefault" departLane="random" />
	<vehicle id="v1724" depart="55.91" route="sr656" type="CarDefault" departLane="random" />
	<vehicle id="v7" depart="56.76" route="r3836" type="CarDefault" departLane="random" />
	<vehicle id="v991" depart="57.32" route="r3837" type="CarDefault" departLane="random" />
	<vehicle id="v1725" depart="60.22" route="sr656" type="CarDefault" departLane="random" />
	<vehicle id="v992" depart="63.06" route="r3837" type="CarDefault" departLane="random" />
	<vehicle id="v1726" depart="64.52" route="sr656" type="CarDefault" departLane="random" />
	<vehicle id="v8" depart="64.86" route="r3836" type="CarDefault" departLane="random" />
	<vehicle id="v993" depart="68.79" route="r3837" type="CarDefault" departLane="random" />
	<vehicle id="v1727" depart="68.82" route="sr656" type="CarDefault" departLane="random" />
	<vehicle id="v9" depart="72.97" route="r3836" type="CarDefault" departLane="random" />
	<vehicle id="v1728" depart="73.12" route="sr656" type="CarDefault" departLane="random" />
	<vehicle id="v994" depart="74.52" route="r3837" type="CarDefault" departLane="random" />
	<vehicle id="v1729" depart="77.42" route="sr656" type="CarDefault" departLane="random" />
	<vehicle id="v995" depart="80.25" route="r3837" type="CarDefault" departLane="random" />
	<vehicle id="v10" depart="81.08" route="r3836" type="CarDefault" departLane="random" />
	<vehicle id="v1730" depart="81.72" route="sr656" type="CarDefault" departLane="random" />
	<vehicle id="v996" depart="85.99" route="r3837" type="CarDefault" departLane="random" />
	<vehicle id="v1731" depart="86.02" route="sr656" type="CarDefault" departLane="random" />
	<vehicle id="v11" depart="89.19" route="r3836" type="CarDefault" departLane="random" />
	<vehicle id="v1732" depart="90.32" route="sr656" type="CarDefault" departLane="random" />
	<vehicle id="v997" depart="91.72" route="r3837" type="CarDefault" departLane="random" />
	<vehicle id="v1733" depart="94.62" route="sr656" type="CarDefault" departLane="random" />
	<vehicle id="v12" depart="97.3" route="r3836" type="CarDefault" departLane="random" />
	<vehicle id="v998" depart="97.45" route="r3837" type="CarDefault" departLane="random" />
	<vehicle id="v1734" depart="98.92" route="sr656" type="CarDefault" departLane="random" />
	<vehicle id="v999" depart="103.18" route="r3837" type="CarDefault" departLane="random" />
	<vehicle id="v1735" depart="103.23" route="sr656" type="CarDefault" departLane="random" />
	<vehicle id="v13" depart="105.41" route="r3836" type="CarDefault" departLane="random" />
	<vehicle id="v1736" depart="107.53" route="sr656" type="CarDefault" departLane="random" />
	<vehicle id="v1000" depart="108.92" route="r3837" type="CarDefault" departLane="random" />
	<vehicle id="v1737" depart="111.83" route="sr656" type="CarDefault" departLane="random" />
	<vehicle id="v1611" depart="113" route="sr656" type="CarDefault" departLane="random" />
	<vehicle id="v14" depart="113.51" route="r3836" type="CarDefault" departLane="random" />
	<vehicle id="v1001" depart="114.65" route="r3837" type="CarDefault" departLane="random" />
	<vehicle id="v1738" depart="116.13" route="sr656" type="CarDefault" departLane="random" />
	<vehicle id="v1002" depart="120.38" route="r3837" type="CarDefault" departLane="random" />
	<vehicle id="v1739" depart="120.43" route="sr656" type="CarDefault" departLane="random" />
	<vehicle id="v15" depart="121.62" route="r3836" type="CarDefault" departLane="random" />
	<vehicle id="v1740" depart="124.73" route="sr656" type="CarDefault" departLane="random" />
	<vehicle id="v894" depart="126" route="r3837" type="CarDefault" departLane="random" />
	<vehicle id="v1003" depart="126.11" route="r3837" type="CarDefault" departLane="random" />
	<vehicle id="v1741" depart="129.03" route="sr656" type="CarDefault" departLane="random" />
	<vehicle id="v16" depart="129.73" route="r3836" type="CarDefault" departLane="random" />
	<vehicle id="v1004" depart="131.85" route="r3837" type="CarDefault" departLane="random" />
	<vehicle id="v1612" depart="132" route="sr656" type="CarDefault" departLane="random" />
	<vehicle id="v1742" depart="133.33" route="sr656" type="CarDefault" departLane="random" />
	<vehicle id="v1005" depart="137.58" route="r3837" type="CarDefault" departLane="random" />
	<vehicle id="v1743" depart="137.63" route="sr656" type="CarDefault" departLane="random" />
	<vehicle id="v17" depart="137.84" route="r3836" type="CarDefault" departLane="random" />
	<vehicle id="v1744" depart="141.94" route="sr656" type="CarDefault" departLane="random" />
	<vehicle id="v1006" depart="143.31" route="r3837" type="CarDefault" departLane="random" />
	<vehicle id="v895" depart="145" route="r3837" type="CarDefault" departLane="random" />
	<vehicle id="v18" depart="145.95" route="r3836" type="CarDefault" departLane="random" />
	<vehicle id="v1745" depart="146.24" route="sr656" type="CarDefault" departLane="random" />
	<vehicle id="v1007" depart="149.04" route="r3837" type="CarDefault" departLane="random" />
	<vehicle id="v1746" depart="150.54" route="sr656" type="CarDefault" departLane="random" />
	<vehicle id="v19" depart="154.05" route="r3836" type="CarDefault" departLane="random" />
	<vehicle id="v1008" depart="154.78" route="r3837" type="CarDefault" departLane="random" />
	<vehicle id="v1747" depart="154.84" route="sr656" type="CarDefault" departLane="random" />
	<vehicle id="v1613" depart="156" route="sr656" type="CarDefault" departLane="random" />
	<vehicle id="v1748" depart="159.14" route="sr656" type="CarDefault" departLane="random" />
	<vehicle id="v1009" depart="160.51" route="r3837" type="CarDefault" departLane="random" />
	<vehicle id="v20" depart="162.16" route="r3836" type="CarDefault" departLane="random" />
	<vehicle id="v1749" depart="163.44" route="sr656" type="CarDefault" departLane="random" />
	<vehicle id="v1010" depart="166.24" route="r3837" type="CarDefault" departLane="random" />
	<vehicle id="v1750" depart="167.74" route="sr656" type="CarDefault" departLane="random" />
	<vehicle id="v21" depart="170.27" route="r3836" type="CarDefault" departLane="random" />
	<vehicle id="v1011" depart="171.97" route="r3837" type="CarDefault" departLane="random" />
	<vehicle id="v1751" depart="172.04" route="sr656" type="CarDefault" departLane="random" />
	<vehicle id="v1614" depart="175" route="sr656" type="CarDefault" departLane="random" />
	<vehicle id="v1752" depart="176.34" route="sr656" type="CarDefault" departLane="random" />
	<vehicle id="v1012" depart="177.71" route="r3837" type="CarDefault" departLane="random" />
	<vehicle id="v22" depart="178.38" route="r3836" type="CarDefault" departLane="random" />
	<vehicle id="v1615" depart="180" route="sr656" type="CarDefault" departLane="random" />
	<vehicle id="v1753" depart="180.65" route="sr656" type="CarDefault" departLane="random" />
	<vehicle id="v1013" depart="183.44" route="r3837" type="CarDefault" departLane="random" />
	<vehicle id="v1754" depart="184.95" route="sr656" type="CarDefault" departLane="random" />
	<vehicle id="v23" depart="186.49" route="r3836" type="CarDefault" departLane="random" />
	<vehicle id="v1014" depart="189.17" route="r3837" type="CarDefault" departLane="random" />
	<vehicle id="v1755" depart="189.25" route="sr656" type="CarDefault" departLane="random" />
	<vehicle id="v1756" depart="193.55" route="sr656" type="CarDefault" departLane="random" />
	<vehicle id="v24" depart="194.59" route="r3836" type="CarDefault" departLane="random" />
	<vehicle id="v1015" depart="194.9" route="r3837" type="CarDefault" departLane="random" />
	<vehicle id="v1757" depart="197.85" route="sr656" type="CarDefault" departLane="random" />
	<vehicle id="v1016" depart="200.64" route="r3837" type="CarDefault" departLane="random" />
	<vehicle id="v1758" depart="202.15" route="sr656" type="CarDefault" departLane="random" />
	<vehicle id="v25" depart="202.7" route="r3836" type="CarDefault" departLane="random" />
	<vehicle id="v1017" depart="206.37" route="r3837" type="CarDefault" departLane="random" />
	<vehicle id="v1759" depart="206.45" route="sr656" type="CarDefault" departLane="random" />
	<vehicle id="v1760" depart="210.75" route="sr656" type="CarDefault" departLane="random" />
	<vehicle id="v26" depart="210.81" route="r3836" type="CarDefault" departLane="random" />
	<vehicle id="v1018" depart="212.1" route="r3837" type="CarDefault" departLane="random" />
	<vehicle id="v896" depart="214" route="r3837" type="CarDefault" departLane="random" />
	<vehicle id="v1761" depart="215.05" route="sr656" type="CarDefault" departLane="random" />
	<vehicle id="v1616" depart="216" route="sr656" type="CarDefault" departLane="random" />
	<vehicle id="v1019" depart="217.83" route="r3837" type="CarDefault" departLane="random" />
	<vehicle id="v27" depart="218.92" route="r3836" type="CarDefault" departLane="random" />
	<vehicle id="v1762" depart="219.35" route="sr656" type="CarDefault" departLane="random" />
	<vehicle id="v1020" depart="223.57" route="r3837" type="CarDefault" departLane="random" />
	<vehicle id="v1763" depart="223.66" route="sr656" type="CarDefault" departLane="random" />
	<vehicle id="v28" depart="227.03" route="r3836" type="CarDefault" departLane="random" />
	<vehicle id="v1764" depart="227.96" route="sr656" type="CarDefault" departLane="random" />
	<vehicle id="v1021" depart="229.3" route="r3837" type="CarDefault" departLane="random" />
	<vehicle id="v1617" depart="230" route="sr656" type="CarDefault" departLane="random" />
	<vehicle id="v1765" depart="232.26" route="sr656" type="CarDefault" departLane="random" />
	<vehicle id="v1022" depart="235.03" route="r3837" type="CarDefault" departLane="random" />
	<vehicle id="v29" depart="235.14" route="r3836" type="CarDefault" departLane="random" />
	<vehicle id="v1766" depart="236.56" route="sr656" type="CarDefault" departLane="random" />
	<vehicle id="v1023" depart="240.76" route="r3837" type="CarDefault" departLane="random" />
	<vehicle id="v1767" depart="240.86" route="sr656" type="CarDefault" departLane="random" />
	<vehicle id="v30" depart="243.24" route="r3836" type="CarDefault" departLane="random" />
	<vehicle id="v1768" depart="245.16" route="sr656" type="CarDefault" departLane="random" />
	<vehicle id="v1024" depart="246.5" route="r3837" type="CarDefault" departLane="random" />
	<vehicle id="v1769" depart="249.46" route="sr656" type="CarDefault" departLane="random" />
	<vehicle id="v1618" depart="250" route="sr656" type="CarDefault" departLane="random" />
	<vehicle id="v897" depart="251" route="r3837" type="CarDefault" departLane="random" />
	<vehicle id="v31" depart="251.35" route="r3836" type="CarDefault" departLane="random" />
	<vehicle id="v1025" depart="252.23" route="r3837" type="CarDefault" departLane="random" />
	<vehicle id="v1770" depart="253.76" route="sr656" type="CarDefault" departLane="random" />
	<vehicle id="v1026" depart="257.96" route="r3837" type="CarDefault" departLane="random" />
	<vehicle id="v1771" depart="258.06" route="sr656" type="CarDefault" departLane="random" />
	<vehicle id="v32" depart="259.46" route="r3836" type="CarDefault" departLane="random" />
	<vehicle id="v1772" depart="262.37" route="sr656" type="CarDefault" departLane="random" />
	<vehicle id="v1027" depart="263.69" route="r3837" type="CarDefault" departLane="random" />
	<vehicle id="v1773" depart="266.67" route="sr656" type="CarDefault" departLane="random" />
	<vehicle id="v33" depart="267.57" route="r3836" type="CarDefault" departLane="random" />
	<vehicle id="v1619" depart="268" route="sr656" type="CarDefault" departLane="random" />
	<vehicle id="v1028" depart="269.43" route="r3837" type="CarDefault" departLane="random" />
	<vehicle id="v1774" depart="270.97" route="sr656" type="CarDefault" departLane="random" />
	<vehicle id="v1029" depart="275.16" route="r3837" type="CarDefault" departLane="random" />
	<vehicle id="v1775" depart="275.27" route="sr656" type="CarDefault" departLane="random" />
	<vehicle id="v34" depart="275.68" route="r3836" type="CarDefault" departLane="random" />
	<vehicle id="v1776" depart="279.57" route="sr656" type="CarDefault" departLane="random" />
	<vehicle id="v1030" depart="280.89" route="r3837" type="CarDefault" departLane="random" />
	<vehicle id="v35" depart="283.78" route="r3836" type="CarDefault" departLane="random" />
	<vehicle id="v1777" depart="283.87" route="sr656" type="CarDefault" departLane="random" />
	<vehicle id="v1031" depart="286.62" route="r3837" type="CarDefault" departLane="random" />
	<vehicle id="v1778" depart="288.17" route="sr656" type="CarDefault" departLane="random" />
	<vehicle id="v36" depart="291.89" route="r3836" type="CarDefault" departLane="random" />
	<vehicle id="v1032" depart="292.36" route="r3837" type="CarDefault" departLane="random" />
	<vehicle id="v1779" depart="292.47" route="sr656" type="CarDefault" departLane="random" />
	<vehicle id="v1780" depart="296.77" route="sr656" type="CarDefault" departLane="random" />
	<vehicle id="v1033" depart="298.09" route="r3837" type="CarDefault" departLane="random" />
	<vehicle id="v898" depart="299" route="r3837" type="CarDefault" departLane="random" />
	<vehicle id="v37" depart="300.0" route="r3836" type="CarDefault" departLane="random" />
	<vehicle id="v1781" depart="301.08" route="sr656" type="CarDefault" departLane="random" />
	<vehicle id="v1620" depart="302" route="sr656" type="CarDefault" departLane="random" />
	<vehicle id="v1034" depart="303.82" route="r3837" type="CarDefault" departLane="random" />
	<vehicle id="v1782" depart="305.38" route="sr656" type="CarDefault" departLane="random" />
	<vehicle id="v899" depart="306" route="r3837" type="CarDefault" departLane="random" />
	<vehicle id="v38" depart="308.11" route="r3836" type="CarDefault" departLane="random" />
	<vehicle id="v1035" depart="309.55" route="r3837" type="CarDefault" departLane="random" />
	<vehicle id="v1783" depart="309.68" route="sr656" type="CarDefault" departLane="random" />
	<vehicle id="v1784" depart="313.98" route="sr656" type="CarDefault" departLane="random" />
	<vehicle id="v1036" depart="315.29" route="r3837" type="CarDefault" departLane="random" />
	<vehicle id="v39" depart="316.22" route="r3836" type="CarDefault" departLane="random" />
	<vehicle id="v1785" depart="318.28" route="sr656" type="CarDefault" departLane="random" />
	<vehicle id="v1037" depart="321.02" route="r3837" type="CarDefault" departLane="random" />
	<vehicle id="v1786" depart="322.58" route="sr656" type="CarDefault" departLane="random" />
	<vehicle id="v40" depart="324.32" route="r3836" type="CarDefault" departLane="random" />
	<vehicle id="v1038" depart="326.75" route="r3837" type="CarDefault" departLane="random" />
	<vehicle id="v1787" depart="326.88" route="sr656" type="CarDefault" departLane="random" />
	<vehicle id="v1621" depart="329" route="sr656" type="CarDefault" departLane="random" />
	<vehicle id="v1788" depart="331.18" route="sr656" type="CarDefault" departLane="random" />
	<vehicle id="v41" depart="332.43" route="r3836" type="CarDefault" departLane="random" />
	<vehicle id="v1039" depart="332.48" route="r3837" type="CarDefault" departLane="random" />
	<vehicle id="v1789" depart="335.48" route="sr656" type="CarDefault" departLane="random" />
	<vehicle id="v1040" depart="338.22" route="r3837" type="CarDefault" departLane="random" />
	<vehicle id="v1790" depart="339.78" route="sr656" type="CarDefault" departLane="random" />
	<vehicle id="v42" depart="340.54" route="r3836" type="CarDefault" departLane="random" />
	<vehicle id="v1041" depart="343.95" route="r3837" type="CarDefault" departLane="random" />
	<vehicle id="v1791" depart="344.09" route="sr656" type="CarDefault" departLane="random" />
	<vehicle id="v1792" depart="348.39" route="sr656" type="CarDefault" departLane="random" />
	<vehicle id="v43" depart="348.65" route="r3836" type="CarDefault" departLane="random" />
	<vehicle id="v1042" depart="349.68" route="r3837" type="CarDefault" departLane="random" />
	<vehicle id="v900" depart="350" route="r3837" type="CarDefault" departLane="random" />
	<vehicle id="v1793" depart="352.69" route="sr656" type="CarDefault" departLane="random" />
	<vehicle id="v1043" depart="355.41" route="r3837" type="CarDefault" departLane="random" />
	<vehicle id="v44" depart="356.76" route="r3836" type="CarDefault" departLane="random" />
	<vehicle id="v1794" depart="356.99" route="sr656" type="CarDefault" departLane="random" />
	<vehicle id="v1044" depart="361.15" route="r3837" type="CarDefault" departLane="random" />
	<vehicle id="v1795" depart="361.29" route="sr656" type="CarDefault" departLane="random" />
	<vehicle id="v45" depart="364.86" route="r3836" type="CarDefault" departLane="random" />
	<vehicle id="v1796" depart="365.59" route="sr656" type="CarDefault" departLane="random" />
	<vehicle id="v1045" depart="366.88" route="r3837" type="CarDefault" departLane="random" />
	<vehicle id="v1797" depart="369.89" route="sr656" type="CarDefault" departLane="random" />
	<vehicle id="v901" depart="371" route="r3837" type="CarDefault" departLane="random" />
	<vehicle id="v1046" depart="372.61" route="r3837" type="CarDefault" departLane="random" />
	<vehicle id="v46" depart="372.97" route="r3836" type="CarDefault" departLane="random" />
	<vehicle id="v1798" depart="374.19" route="sr656" type="CarDefault" departLane="random" />
	<vehicle id="v1047" depart="378.34" route="r3837" type="CarDefault" departLane="random" />
	<vehicle id="v1799" depart="378.49" route="sr656" type="CarDefault" departLane="random" />
	<vehicle id="v47" depart="381.08" route="r3836" type="CarDefault" departLane="random" />
	<vehicle id="v1800" depart="382.8" route="sr656" type="CarDefault" departLane="random" />
	<vehicle id="v1048" depart="384.08" route="r3837" type="CarDefault" departLane="random" />
	<vehicle id="v1801" depart="387.1" route="sr656" type="CarDefault" departLane="random" />
	<vehicle id="v48" depart="389.19" route="r3836" type="CarDefault" departLane="random" />
	<vehicle id="v1049" depart="389.81" route="r3837" type="CarDefault" departLane="random" />
	<vehicle id="v1802" depart="391.4" route="sr656" type="CarDefault" departLane="random" />
	<vehicle id="v1622" depart="395" route="sr656" type="CarDefault" departLane="random" />
	<vehicle id="v1050" depart="395.54" route="r3837" type="CarDefault" departLane="random" />
	<vehicle id="v1803" depart="395.7" route="sr656" type="CarDefault" departLane="random" />
	<vehicle id="v49" depart="397.3" route="r3836" type="CarDefault" departLane="random" />
	<vehicle id="v1804" depart="400.0" route="sr656" type="CarDefault" departLane="random" />
	<vehicle id="v1051" depart="401.27" route="r3837" type="CarDefault" departLane="random" />
	<vehicle id="v1805" depart="404.3" route="sr656" type="CarDefault" departLane="random" />
	<vehicle id="v50" depart="405.41" route="r3836" type="CarDefault" departLane="random" />
	<vehicle id="v1052" depart="407.01" route="r3837" type="CarDefault" departLane="random" />
	<vehicle id="v1806" depart="408.6" route="sr656" type="CarDefault" departLane="random" />
	<vehicle id="v1053" depart="412.74" route="r3837" type="CarDefault" departLane="random" />
	<vehicle id="v1807" depart="412.9" route="sr656" type="CarDefault" departLane="random" />
	<vehicle id="v51" depart="413.51" route="r3836" type="CarDefault" departLane="random" />
	<vehicle id="v902" depart="416" route="r3837" type="CarDefault" departLane="random" />
	<vehicle id="v1808" depart="417.2" route="sr656" type="CarDefault" departLane="random" />
	<vehicle id="v1054" depart="418.47" route="r3837" type="CarDefault" departLane="random" />
	<vehicle id="v1809" depart="421.51" route="sr656" type="CarDefault" departLane="random" />
	<vehicle id="v52" depart="421.62" route="r3836" type="CarDefault" departLane="random" />
	<vehicle id="v903" depart="424" route="r3837" type="CarDefault" departLane="random" />
	<vehicle id="v1055" depart="424.2" route="r3837" type="CarDefault" departLane="random" />
	<vehicle id="v1810" depart="425.81" route="sr656" type="CarDefault" departLane="random" />
	<vehicle id="v53" depart="429.73" route="r3836" type="CarDefault" departLane="random" />
	<vehicle id="v1056" depart="429.94" route="r3837" type="CarDefault" departLane="random" />
	<vehicle id="v1811" depart="430.11" route="sr656" type="CarDefault" departLane="random" />
	<vehicle id="v1812" depart="434.41" route="sr656" type="CarDefault" departLane="random" />
	<vehicle id="v1057" depart="435.67" route="r3837" type="CarDefault" departLane="random" />
	<vehicle id="v54" depart="437.84" route="r3836" type="CarDefault" departLane="random" />
	<vehicle id="v1813" depart="438.71" route="sr656" type="CarDefault" departLane="random" />
	<vehicle id="v1058" depart="441.4" route="r3837" type="CarDefault" departLane="random" />
	<vehicle id="v1814" depart="443.01" route="sr656" type="CarDefault" departLane="random" />
	<vehicle id="v904" depart="444" route="r3837" type="CarDefault" departLane="random" />
	<vehicle id="v55" depart="445.95" route="r3836" type="CarDefault" departLane="random" />
	<vehicle id="v1059" depart="447.13" route="r3837" type="CarDefault" departLane="random" />
	<vehicle id="v1815" depart="447.31" route="sr656" type="CarDefault" departLane="random" />
	<vehicle id="v1816" depart="451.61" route="sr656" type="CarDefault" departLane="random" />
	<vehicle id="v1060" depart="452.87" route="r3837" type="CarDefault" departLane="random" />
	<vehicle id="v1623" depart="454" route="sr656" type="CarDefault" departLane="random" />
	<vehicle id="v56" depart="454.05" route="r3836" type="CarDefault" departLane="random" />
	<vehicle id="v1817" depart="455.91" route="sr656" type="CarDefault" departLane="random" />
	<vehicle id="v1061" depart="458.6" route="r3837" type="CarDefault" departLane="random" />
	<vehicle id="v1818" depart="460.22" route="sr656" type="CarDefault" departLane="random" />
	<vehicle id="v57" depart="462.16" route="r3836" type="CarDefault" departLane="random" />
	<vehicle id="v1062" depart="464.33" route="r3837" type="CarDefault" departLane="random" />
	<vehicle id="v1819" depart="464.52" route="sr656" type="CarDefault" departLane="random" />
	<vehicle id="v905" depart="468" route="r3837" type="CarDefault" departLane="random" />
	<vehicle id="v1820" depart="468.82" route="sr656" type="CarDefault" departLane="random" />
	<vehicle id="v1624" depart="470" route="sr656" type="CarDefault" departLane="random" />
	<vehicle id="v1063" depart="470.06" route="r3837" type="CarDefault" departLane="random" />
	<vehicle id="v58" depart="470.27" route="r3836" type="CarDefault" departLane="random" />
	<vehicle id="v1821" depart="473.12" route="sr656" type="CarDefault" departLane="random" />
	<vehicle id="v1064" depart="475.8" route="r3837" type="CarDefault" departLane="random" />
	<vehicle id="v1822" depart="477.42" route="sr656" type="CarDefault" departLane="random" />
	<vehicle id="v59" depart="478.38" route="r3836" type="CarDefault" departLane="random" />
	<vehicle id="v1065" depart="481.53" route="r3837" type="CarDefault" departLane="random" />
	<vehicle id="v1823" depart="481.72" route="sr656" type="CarDefault" departLane="random" />
	<vehicle id="v1824" depart="486.02" route="sr656" type="CarDefault" departLane="random" />
	<vehicle id="v60" depart="486.49" route="r3836" type="CarDefault" departLane="random" />
	<vehicle id="v1066" depart="487.26" route="r3837" type="CarDefault" departLane="random" />
	<vehicle id="v1625" depart="490" route="sr656" type="CarDefault" departLane="random" />
	<vehicle id="v1825" depart="490.32" route="sr656" type="CarDefault" departLane="random" />
	<vehicle id="v1067" depart="492.99" route="r3837" type="CarDefault" departLane="random" />
	<vehicle id="v61" depart="494.59" route="r3836" type="CarDefault" departLane="random" />
	<vehicle id="v1826" depart="494.62" route="sr656" type="CarDefault" departLane="random" />
	<vehicle id="v1068" depart="498.73" route="r3837" type="CarDefault" departLane="random" />
	<vehicle id="v1827" depart="498.92" route="sr656" type="CarDefault" departLane="random" />
	<vehicle id="v62" depart="502.7" route="r3836" type="CarDefault" departLane="random" />
	<vehicle id="v1828" depart="503.23" route="sr656" type="CarDefault" departLane="random" />
	<vehicle id="v1069" depart="504.46" route="r3837" type="CarDefault" departLane="random" />
	<vehicle id="v1626" depart="505" route="sr656" type="CarDefault" departLane="random" />
	<vehicle id="v1829" depart="507.53" route="sr656" type="CarDefault" departLane="random" />
	<vehicle id="v1070" depart="510.19" route="r3837" type="CarDefault" departLane="random" />
	<vehicle id="v63" depart="510.81" route="r3836" type="CarDefault" departLane="random" />
	<vehicle id="v1830" depart="511.83" route="sr656" type="CarDefault" departLane="random" />
	<vehicle id="v1071" depart="515.92" route="r3837" type="CarDefault" departLane="random" />
	<vehicle id="v906" depart="516" route="r3837" type="CarDefault" departLane="random" />
	<vehicle id="v1831" depart="516.13" route="sr656" type="CarDefault" departLane="random" />
	<vehicle id="v64" depart="518.92" route="r3836" type="CarDefault" departLane="random" />
	<vehicle id="v1832" depart="520.43" route="sr656" type="CarDefault" departLane="random" />
	<vehicle id="v1072" depart="521.66" route="r3837" type="CarDefault" departLane="random" />
	<vehicle id="v1833" depart="524.73" route="sr656" type="CarDefault" departLane="random" />
	<vehicle id="v1627" depart="527" route="sr656" type="CarDefault" departLane="random" />
	<vehicle id="v65" depart="527.03" route="r3836" type="CarDefault" departLane="random" />
	<vehicle id="v1073" depart="527.39" route="r3837" type="CarDefault" departLane="random" />
	<vehicle id="v1834" depart="529.03" route="sr656" type="CarDefault" departLane="random" />