<?xml version='1.0' encoding='utf-8'?>
<routes>
	<vType accel="3.0" decel="6.0" id="CarDefault" length="5.0" minGap="2.5" maxSpeed="50.0" sigma="0.5" />
	<route id="sr459" edges="135 56 111 110 335 336 337 338 63 339 95 251 364 365 366 367 368 348 141 431 255" fromJunction="117" toJunction="154" />
	<route id="sr460" edges="62 129 61 6 5 161 162 361 163 164 38 134 116 115 114 113 112 74 73 72 71 70 69 68" fromJunction="154" toJunction="42" />
	<route id="sr461" edges="279 280 281 282 283 284 285 394 395 396 28 27 26 25 50" fromJunction="42" toJunction="11" />
	<route id="sr462" edges="226 227 228 116 359 300 301 124 30 29 397 398 399 400 401 237 0" fromJunction="127" toJunction="117" />
	<vehicle id="v92" depart="0.0" route="sr459" type="CarDefault" departLane="random" />
	<vehicle id="v758" depart="0.0" route="sr460" type="CarDefault" departLane="random" />
	<vehicle id="v1818" depart="0.0" route="sr461" type="CarDefault" departLane="random" />
	<vehicle id="v2563" depart="0.0" route="sr462" type="CarDefault" departLane="random" />
	<vehicle id="v1735" depart="2" route="sr461" type="CarDefault" departLane="random" />
	<vehicle id="v1819" depart="4.84" route="sr461" type="CarDefault" departLane="random" />
	<vehicle id="v2564" depart="5.26" route="sr462" type="CarDefault" departLane="random" />
	<vehicle id="v93" depart="5.41" route="sr459" type="CarDefault" departLane="random" />
	<vehicle id="v759" depart="7.41" route="sr460" type="CarDefault" departLane="random" />
	<vehicle id="v1820" depart="9.68" route="sr461" type="CarDefault" departLane="random" />
	<vehicle id="v2565" depart="10.53" route="sr462" type="CarDefault" departLane="random" />
	<vehicle id="v94" depart="10.83" route="sr459" type="CarDefault" departLane="random" />
	<vehicle id="v1821" depart="14.52" route="sr461" type="CarDefault" departLane="random" />
	<vehicle id="v760" depart="14.81" route="sr460" type="CarDefault" departLane="random" />
	<vehicle id="v2566" depart="15.79" route="sr462" type="CarDefault" departLane="random" />
	<vehicle id="v95" depart="16.24" route="sr459" type="CarDefault" departLane="random" />
	<vehicle id="v1822" depart="19.35" route="sr461" type="CarDefault" departLane="random" />
	<vehicle id="v2567" depart="21.05" route="sr462" type="CarDefault" departLane="random" />
	<vehicle id="v96" depart="21.65" route="sr459" type="CarDefault" departLane="random" />
	<vehicle id="v761" depart="22.22" route="sr460" type="CarDefault" departLane="random" />
	<vehicle id="v1823" depart="24.19" route="sr461" type="CarDefault" departLane="random" />
	<vehicle id="v2568" depart="26.32" route="sr462" type="CarDefault" departLane="random" />
	<vehicle id="v97" depart="27.07" route="sr459" type="CarDefault" departLane="random" />
	<vehicle id="v1824" depart="29.03" route="sr461" type="CarDefault" departLane="random" />
	<vehicle id="v762" depart="29.63" route="sr460" type="CarDefault" departLane="random" />
	<vehicle id="v2569" depart="31.58" route="sr462" type="CarDefault" departLane="random" />
	<vehicle id="v98" depart="32.48" route="sr459" type="CarDefault" departLane="random" />
	<vehicle id="v1825" depart="33.87" route="sr461" type="CarDefault" departLane="random" />
	<vehicle id="v2570" depart="36.84" route="sr462" type="CarDefault" departLane="random" />
	<vehicle id="v0" depart="37" route="sr459" type="CarDefault" departLane="random" />
	<vehicle id="v763" depart="37.04" route="sr460" type="CarDefault" departLane="random" />
	<vehicle id="v99" depart="37.89" route="sr459" type="CarDefault" departLane="random" />
	<vehicle id="v1826" depart="38.71" route="sr461" type="CarDefault" departLane="random" />
	<vehicle id="v2571" depart="42.11" route="sr462" type="CarDefault" departLane="random" />
	<vehicle id="v100" depart="43.31" route="sr459" type="CarDefault" departLane="random" />
	<vehicle id="v1827" depart="43.55" route="sr461" type="CarDefault" departLane="random" />
	<vehicle id="v764" depart="44.44" route="sr460" type="CarDefault" departLane="random" />
	<vehicle id="v2572" depart="47.37" route="sr462" type="CarDefault" departLane="random" />
	<vehicle id="v1828" depart="48.39" route="sr461" type="CarDefault" departLane="random" />
	<vehicle id="v101" depart="48.72" route="sr459" type="CarDefault" departLane="random" />
	<vehicle id="v765" depart="51.85" route="sr460" type="CarDefault" departLane="random" />
	<vehicle id="v2573" depart="52.63" route="sr462" type="CarDefault" departLane="random" />
	<vehicle id="v1829" depart="53.23" route="sr461" type="CarDefault" departLane="random" />
	<vehicle id="v1736" depart="54" route="sr461" type="CarDefault" departLane="random" />
	<vehicle id="v102" depart="54.14" route="sr459" type="CarDefault" departLane="random" />
	<vehicle id="v2574" depart="57.89" route="sr462" type="CarDefault" departLane="random" />
	<vehicle id="v1830" depart="58.06" route="sr461" type="CarDefault" departLane="random" />
	<vehicle id="v766" depart="59.26" route="sr460" type="CarDefault" departLane="random" />
	<vehicle id="v103" depart="59.55" route="sr459" type="CarDefault" departLane="random" />
	<vehicle id="v1737" depart="60" route="sr461" type="CarDefault" departLane="random" />
	<vehicle id="v1831" depart="62.9" route="sr461" type="CarDefault" departLane="random" />
	<vehicle id="v2575" depart="63.16" route="sr462" type="CarDefault" departLane="random" />
	<vehicle id="v104" depart="64.96" route="sr459" type="CarDefault" departLane="random" />
	<vehicle id="v767" depart="66.67" route="sr460" type="CarDefault" departLane="random" />
	<vehicle id="v1832" depart="67.74" route="sr461" type="CarDefault" departLane="random" />
	<vehicle id="v2576" depart="68.42" route="sr462" type="CarDefault" departLane="random" />
	<vehicle id="v105" depart="70.38" route="sr459" type="CarDefault" departLane="random" />
	<vehicle id="v1" depart="71" route="sr459" type="CarDefault" departLane="random" />
	<vehicle id="v1833" depart="72.58" route="sr461" type="CarDefault" departLane="random" />
	<vehicle id="v2577" depart="73.68" route="sr462" type="CarDefault" departLane="random" />
	<vehicle id="v768" depart="74.07" route="sr460" type="CarDefault" departLane="random" />
	<vehicle id="v106" depart="75.79" route="sr459" type="CarDefault" departLane="random" />
	<vehicle id="v1834" depart="77.42" route="sr461" type="CarDefault" departLane="random" />
	<vehicle id="v2578" depart="78.95" route="sr462" type="CarDefault" departLane="random" />
	<vehicle id="v107" depart="81.2" route="sr459" type="CarDefault" departLane="random" />
	<vehicle id="v769" depart="81.48" route="sr460" type="CarDefault" departLane="random" />
	<vehicle id="v1835" depart="82.26" route="sr461" type="CarDefault" departLane="random" />
	<vehicle id="v2579" depart="84.21" route="sr462" type="CarDefault" departLane="random" />
	<vehicle id="v108" depart="86.62" route="sr459" type="CarDefault" departLane="random" />
	<vehicle id="v1836" depart="87.1" route="sr461" type="CarDefault" departLane="random" />
	<vehicle id="v770" depart="88.89" route="sr460" type="CarDefault" departLane="random" />
	<vehicle id="v2580" depart="89.47" route="sr462" type="CarDefault" departLane="random" />
	<vehicle id="v1837" depart="91.94" route="sr461" type="CarDefault" departLane="random" />
	<vehicle id="v109" depart="92.03" route="sr459" type="CarDefault" departLane="random" />
	<vehicle id="v2581" depart="94.74" route="sr462" type="CarDefault" departLane="random" />
	<vehicle id="v771" depart="96.3" route="sr460" type="CarDefault" departLane="random" />
	<vehicle id="v1838" depart="96.77" route="sr461" type="CarDefault" departLane="random" />
	<vehicle id="v110" depart="97.44" route="sr459" type="CarDefault" departLane="random" />
	<vehicle id="v2582" depart="100.0" route="sr462" type="CarDefault" departLane="random" />
	<vehicle id="v1839" depart="101.61" route="sr461" type="CarDefault" departLane="random" />
	<vehicle id="v111" depart="102.86" route="sr459" type="CarDefault" departLane="random" />
	<vehicle id="v772" depart="103.7" route="sr460" type="CarDefault" departLane="random" />
	<vehicle id="v2583" depart="105.26" route="sr462" type="CarDefault" departLane="random" />
	<vehicle id="v2" depart="106" route="sr459" type="CarDefault" departLane="random" />
	<vehicle id="v1840" depart="106.45" route="sr461" type="CarDefault" departLane="random" />
	<vehicle id="v112" depart="108.27" route="sr459" type="CarDefault" departLane="random" />
	<vehicle id="v2584" depart="110.53" route="sr462" type="CarDefault" departLane="random" />
	<vehicle id="v773" depart="111.11" route="sr460" type="CarDefault" departLane="random" />
	<vehicle id="v1841" depart="111.29" route="sr461" type="CarDefault" departLane="random" />
	<vehicle id="v113" depart="113.68" route="sr459" type="CarDefault" departLane="random" />
	<vehicle id="v2585" depart="115.79" route="sr462" type="CarDefault" departLane="random" />
	<vehicle id="v1842" depart="116.13" route="sr461" type="CarDefault" departLane="random" />
	<vehicle id="v774" depart="118.52" route="sr460" type="CarDefault" departLane="random" />
	<vehicle id="v114" depart="119.1" route="sr459" type="CarDefault" departLane="random" />
	<vehicle id="v1843" depart="120.97" route="sr461" type="CarDefault" departLane="random" />
	<vehicle id="v2586" depart="121.05" route="sr462" type="CarDefault" departLane="random" />
	<vehicle id="v115" depart="124.51" route="sr459" type="CarDefault" departLane="random" />
	<vehicle id="v1844" depart="125.81" route="sr461" type="CarDefault" departLane="random" />
	<vehicle id="v775" depart="125.93" route="sr460" type="CarDefault" departLane="random" />
	<vehicle id="v2587" depart="126.32" route="sr462" type="CarDefault" departLane="random" />
	<vehicle id="v116" depart="129.92" route="sr459" type="CarDefault" departLane="random" />
	<vehicle id="v1845" depart="130.65" route="sr461" type="CarDefault" departLane="random" />
	<vehicle id="v2588" depart="131.58" route="sr462" type="CarDefault" departLane="random" />
	<vehicle id="v776" depart="133.33" route="sr460" type="CarDefault" departLane="random" />
	<vehicle id="v117" depart="135.34" route="sr459" type="CarDefault" departLane="random" />
	<vehicle id="v1846" depart="135.48" route="sr461" type="CarDefault" departLane="random" />
	<vehicle id="v1738" depart="136" route="sr461" type="CarDefault" departLane="random" />
	<vehicle id="v2589" depart="136.84" route="sr462" type="CarDefault" departLane="random" />
	<vehicle id="v1847" depart="140.32" route="sr461" type="CarDefault" departLane="random" />
	<vehicle id="v777" depart="140.74" route="sr460" type="CarDefault" departLane="random" />
	<vehicle id="v118" depart="140.75" route="sr459" type="CarDefault" departLane="random" />
	<vehicle id="v2590" depart="142.11" route="sr462" type="CarDefault" departLane="random" />
	<vehicle id="v1848" depart="145.16" route="sr461" type="CarDefault" departLane="random" />
	<vehicle id="v119" depart="146.17" route="sr459" type="CarDefault" departLane="random" />
	<vehicle id="v2591" depart="147.37" route="sr462" type="CarDefault" departLane="random" />
	<vehicle id="v778" depart="148.15" route="sr460" type="CarDefault" departLane="random" />
	<vehicle id="v1849" depart="150.0" route="sr461" type="CarDefault" departLane="random" />
	<vehicle id="v120" depart="151.58" route="sr459" type="CarDefault" departLane="random" />
	<vehicle id="v2592" depart="152.63" route="sr462" type="CarDefault" departLane="random" />
	<vehicle id="v1850" depart="154.84" route="sr461" type="CarDefault" departLane="random" />
	<vehicle id="v779" depart="155.56" route="sr460" type="CarDefault" departLane="random" />
	<vehicle id="v121" depart="156.99" route="sr459" type="CarDefault" departLane="random" />
	<vehicle id="v2593" depart="157.89" route="sr462" type="CarDefault" departLane="random" />
	<vehicle id="v1851" depart="159.68" route="sr461" type="CarDefault" departLane="random" />
	<vehicle id="v122" depart="162.41" route="sr459" type="CarDefault" departLane="random" />
	<vehicle id="v780" depart="162.96" route="sr460" type="CarDefault" departLane="random" />
	<vehicle id="v2594" depart="163.16" route="sr462" type="CarDefault" departLane="random" />
	<vehicle id="v1739" depart="164" route="sr461" type="CarDefault" departLane="random" />
	<vehicle id="v1852" depart="164.52" route="sr461" type="CarDefault" departLane="random" />
	<vehicle id="v123" depart="167.82" route="sr459" type="CarDefault" departLane="random" />
	<vehicle id="v2595" depart="168.42" route="sr462" type="CarDefault" departLane="random" />
	<vehicle id="v1853" depart="169.35" route="sr461" type="CarDefault" departLane="random" />
	<vehicle id="v781" depart="170.37" route="sr460" type="CarDefault" departLane="random" />
	<vehicle id="v124" depart="173.23" route="sr459" type="CarDefault" departLane="random" />
	<vehicle id="v2596" depart="173.68" route="sr462" type="CarDefault" departLane="random" />
	<vehicle id="v1854" depart="174.19" route="sr461" type="CarDefault" departLane="random" />
	<vehicle id="v3" depart="175" route="sr459" type="CarDefault" departLane="random" />
	<vehicle id="v782" depart="177.78" route="sr460" type="CarDefault" departLane="random" />
	<vehicle id="v125" depart="178.65" route="sr459" type="CarDefault" departLane="random" />
	<vehicle id="v2597" depart="178.95" route="sr462" type="CarDefault" departLane="random" />
	<vehicle id="v1855" depart="179.03" route="sr461" type="CarDefault" departLane="random" />
	<vehicle id="v4" depart="180" route="sr459" type="CarDefault" departLane="random" />
	<vehicle id="v1856" depart="183.87" route="sr461" type="CarDefault" departLane="random" />
	<vehicle id="v126" depart="184.06" route="sr459" type="CarDefault" departLane="random" />
	<vehicle id="v2598" depart="184.21" route="sr462" type="CarDefault" departLane="random" />
	<vehicle id="v783" depart="185.19" route="sr460" type="CarDefault" departLane="random" />
	<vehicle id="v1857" depart="188.71" route="sr461" type="CarDefault" departLane="random" />
	<vehicle id="v127" depart="189.47" route="sr459" type="CarDefault" departLane="random" />
	<vehicle id="v2599" depart="189.47" route="sr462" type="CarDefault" departLane="random" />
	<vehicle id="v1740" depart="190" route="sr461" type="CarDefault" departLane="random" />
	<vehicle id="v784" depart="192.59" route="sr460" type="CarDefault" departLane="random" />
	<vehicle id="v1858" depart="193.55" route="sr461" type="CarDefault" departLane="random" />
	<vehicle id="v2600" depart="194.74" route="sr462" type="CarDefault" departLane="random" />
	<vehicle id="v128" depart="194.89" route="sr459" type="CarDefault" departLane="random" />
	<vehicle id="v1859" depart="198.39" route="sr461" type="CarDefault" departLane="random" />
	<vehicle id="v785" depart="200.0" route="sr460" type="CarDefault" departLane="random" />
	<vehicle id="v2601" depart="200.0" route="sr462" type="CarDefault" departLane="random" />
	<vehicle id="v129" depart="200.3" route="sr459" type="CarDefault" departLane="random" />
	<vehicle id="v1860" depart="203.23" route="sr461" type="CarDefault" departLane="random" />
	<vehicle id="v2602" depart="205.26" route="sr462" type="CarDefault" departLane="random" />
	<vehicle id="v130" depart="205.71" route="sr459" type="CarDefault" departLane="random" />
	<vehicle id="v786" depart="207.41" route="sr460" type="CarDefault" departLane="random" />
	<vehicle id="v1861" depart="208.06" route="sr461" type="CarDefault" departLane="random" />
	<vehicle id="v1741" depart="210" route="sr461" type="CarDefault" departLane="random" />
	<vehicle id="v2603" depart="210.53" route="sr462" type="CarDefault" departLane="random" />
	<vehicle id="v131" depart="211.13" route="sr459" type="CarDefault" departLane="random" />
	<vehicle id="v1862" depart="212.9" route="sr461" type="CarDefault" departLane="random" />
	<vehicle id="v787" depart="214.81" route="sr460" type="CarDefault" departLane="random" />
	<vehicle id="v2604" depart="215.79" route="sr462" type="CarDefault" departLane="random" />
	<vehicle id="v132" depart="216.54" route="sr459" type="CarDefault" departLane="random" />
	<vehicle id="v1863" depart="217.74" route="sr461" type="CarDefault" departLane="random" />
	<vehicle id="v2605" depart="221.05" route="sr462" type="CarDefault" departLane="random" />
	<vehicle id="v133" depart="221.95" route="sr459" type="CarDefault" departLane="random" />
	<vehicle id="v788" depart="222.22" route="sr460" type="CarDefault" departLane="random" />
	<vehicle id="v1864" depart="222.58" route="sr461" type="CarDefault" departLane="random" />
	<vehicle id="v2606" depart="226.32" route="sr462" type="CarDefault" departLane="random" />
	<vehicle id="v134" depart="227.37" route="sr459" type="CarDefault" departLane="random" />
	<vehicle id="v1865" depart="227.42" route="sr461" type="CarDefault" departLane="random" />
	<vehicle id="v789" depart="229.63" route="sr460" type="CarDefault" departLane="random" />
	<vehicle id="v2607" depart="231.58" route="sr462" type="CarDefault" departLane="random" />
	<vehicle id="v1866" depart="232.26" route="sr461" type="CarDefault" departLane="random" />
	<vehicle id="v135" depart="232.78" route="sr459" type="CarDefault" departLane="random" />
	<vehicle id="v2608" depart="236.84" route="sr462" type="CarDefault" departLane="random" />
	<vehicle id="v5" depart="237" route="sr459" type="CarDefault" departLane="random" />
	<vehicle id="v790" depart="237.04" route="sr460" type="CarDefault" departLane="random" />
	<vehicle id="v1867" depart="237.1" route="sr461" type="CarDefault" departLane="random" />
	<vehicle id="v136" depart="238.2" route="sr459" type="CarDefault" departLane="random" />
	<vehicle id="v1868" depart="241.94" route="sr461" type="CarDefault" departLane="random" />
	<vehicle id="v2609" depart="242.11" route="sr462" type="CarDefault" departLane="random" />
	<vehicle id="v137" depart="243.61" route="sr459" type="CarDefault" departLane="random" />
	<vehicle id="v791" depart="244.44" route="sr460" type="CarDefault" departLane="random" />
	<vehicle id="v1869" depart="246.77" route="sr461" type="CarDefault" departLane="random" />
	<vehicle id="v2610" depart="247.37" route="sr462" type="CarDefault" departLane="random" />
	<vehicle id="v1742" depart="249" route="sr461" type="CarDefault" departLane="random" />
	<vehicle id="v138" depart="249.02" route="sr459" type="CarDefault" departLane="random" />
	<vehicle id="v1870" depart="251.61" route="sr461" type="CarDefault" departLane="random" />
	<vehicle id="v792" depart="251.85" route="sr460" type="CarDefault" departLane="random" />
	<vehicle id="v2611" depart="252.63" route="sr462" type="CarDefault" departLane="random" />
	<vehicle id="v6" depart="254" route="sr459" type="CarDefault" departLane="random" />
	<vehicle id="v139" depart="254.44" route="sr459" type="CarDefault" departLane="random" />
	<vehicle id="v1871" depart="256.45" route="sr461" type="CarDefault" departLane="random" />
	<vehicle id="v2612" depart="257.89" route="sr462" type="CarDefault" departLane="random" />
	<vehicle id="v793" depart="259.26" route="sr460" type="CarDefault" departLane="random" />
	<vehicle id="v140" depart="259.85" route="sr459" type="CarDefault" departLane="random" />
	<vehicle id="v1872" depart="261.29" route="sr461" type="CarDefault" departLane="random" />
	<vehicle id="v2613" depart="263.16" route="sr462" type="CarDefault" departLane="random" />
	<vehicle id="v141" depart="265.26" route="sr459" type="CarDefault" departLane="random" />
	<vehicle id="v1873" depart="266.13" route="sr461" type="CarDefault" departLane="random" />
	<vehicle id="v794" depart="266.67" route="sr460" type="CarDefault" departLane="random" />
	<vehicle id="v2614" depart="268.42" route="sr462" type="CarDefault" departLane="random" />
	<vehicle id="v142" depart="270.68" route="sr459" type="CarDefault" departLane="random" />
	<vehicle id="v1874" depart="270.97" route="sr461" type="CarDefault" departLane="random" />
	<vehicle id="v2615" depart="273.68" route="sr462" type="CarDefault" departLane="random" />
	<vehicle id="v795" depart="274.07" route="sr460" type="CarDefault" departLane="random" />
	<vehicle id="v1875" depart="275.81" route="sr461" type="CarDefault" departLane="random" />
	<vehicle id="v143" depart="276.09" route="sr459" type="CarDefault" departLane="random" />
	<vehicle id="v2616" depart="278.95" route="sr462" type="CarDefault" departLane="random" />
	<vehicle id="v1876" depart="280.65" route="sr461" type="CarDefault" departLane="random" />
	<vehicle id="v796" depart="281.48" route="sr460" type="CarDefault" departLane="random" />
	<vehicle id="v144" depart="281.5" route="sr459" type="CarDefault" departLane="random" />
	<vehicle id="v2617" depart="284.21" route="sr462" type="CarDefault" departLane="random" />
	<vehicle id="v1877" depart="285.48" route="sr461" type="CarDefault" departLane="random" />
	<vehicle id="v145" depart="286.92" route="sr459" type="CarDefault" departLane="random" />
	<vehicle id="v797" depart="288.89" route="sr460" type="CarDefault" departLane="random" />
	<vehicle id="v2618" depart="289.47" route="sr462" type="CarDefault" departLane="random" />
	<vehicle id="v1743" depart="290" route="sr461" type="CarDefault" departLane="random" />
	<vehicle id="v1878" depart="290.32" route="sr461" type="CarDefault" departLane="random" />
	<vehicle id="v7" depart="291" route="sr459" type="CarDefault" departLane="random" />
	<vehicle id="v146" depart="292.33" route="sr459" type="CarDefault" departLane="random" />
	<vehicle id="v2619" depart="294.74" route="sr462" type="CarDefault" departLane="random" />
	<vehicle id="v1879" depart="295.16" route="sr461" type="CarDefault" departLane="random" />
	<vehicle id="v798" depart="296.3" route="sr460" type="CarDefault" departLane="random" />
	<vehicle id="v147" depart="297.74" route="sr459" type="CarDefault" departLane="random" />
	<vehicle id="v1880" depart="300.0" route="sr461" type="CarDefault" departLane="random" />
	<vehicle id="v2620" depart="300.0" route="sr462" type="CarDefault" departLane="random" />
	<vehicle id="v148" depart="303.16" route="sr459" type="CarDefault" departLane="random" />
	<vehicle id="v799" depart="303.7" route="sr460" type="CarDefault" departLane="random" />
	<vehicle id="v1881" depart="304.84" route="sr461" type="CarDefault" departLane="random" />
	<vehicle id="v2621" depart="305.26" route="sr462" type="CarDefault" departLane="random" />
	<vehicle id="v1744" depart="308" route="sr461" type="CarDefault" departLane="random" />
	<vehicle id="v149" depart="308.57" route="sr459" type="CarDefault" departLane="random" />
	<vehicle id="v1882" depart="309.68" route="sr461" type="CarDefault" departLane="random" />
	<vehicle id="v2622" depart="310.53" route="sr462" type="CarDefault" departLane="random" />
	<vehicle id="v800" depart="311.11" route="sr460" type="CarDefault" departLane="random" />
	<vehicle id="v150" depart="313.98" route="sr459" type="CarDefault" departLane="random" />
	<vehicle id="v1883" depart="314.52" route="sr461" type="CarDefault" departLane="random" />
	<vehicle id="v2623" depart="315.79" route="sr462" type="CarDefault" departLane="random" />
	<vehicle id="v801" depart="318.52" route="sr460" type="CarDefault" departLane="random" />
	<vehicle id="v1884" depart="319.35" route="sr461" type="CarDefault" departLane="random" />
	<vehicle id="v151" depart="319.4" route="sr459" type="CarDefault" departLane="random" />
	<vehicle id="v2624" depart="321.05" route="sr462" type="CarDefault" departLane="random" />
	<vehicle id="v1745" depart="322" route="sr461" type="CarDefault" departLane="random" />
	<vehicle id="v1885" depart="324.19" route="sr461" type="CarDefault" departLane="random" />
	<vehicle id="v152" depart="324.81" route="sr459" type="CarDefault" departLane="random" />
	<vehicle id="v802" depart="325.93" route="sr460" type="CarDefault" departLane="random" />
	<vehicle id="v2625" depart="326.32" route="sr462" type="CarDefault" departLane="random" />
	<vehicle id="v1886" depart="329.03" route="sr461" type="CarDefault" departLane="random" />
	<vehicle id="v153" depart="330.23" route="sr459" type="CarDefault" departLane="random" />
	<vehicle id="v2626" depart="331.58" route="sr462" type="CarDefault" departLane="random" />
	<vehicle id="v803" depart="333.33" route="sr460" type="CarDefault" departLane="random" />
	<vehicle id="v1887" depart="333.87" route="sr461" type="CarDefault" departLane="random" />
	<vehicle id="v154" depart="335.64" route="sr459" type="CarDefault" departLane="random" />
	<vehicle id="v2627" depart="336.84" route="sr462" type="CarDefault" departLane="random" />
	<vehicle id="v1888" depart="338.71" route="sr461" type="CarDefault" departLane="random" />
	<vehicle id="v804" depart="340.74" route="sr460" type="CarDefault" departLane="random" />
	<vehicle id="v155" depart="341.05" route="sr459" type="CarDefault" departLane="random" />
	<vehicle id="v2628" depart="342.11" route="sr462" type="CarDefault" departLane="random" />
	<vehicle id="v1889" depart="343.55" route="sr461" type="CarDefault" departLane="random" />
	<vehicle id="v156" depart="346.47" route="sr459" type="CarDefault" departLane="random" />
	<vehicle id="v2629" depart="347.37" route="sr462" type="CarDefault" departLane="random" />
	<vehicle id="v1746" depart="348" route="sr461" type="CarDefault" departLane="random" />
	<vehicle id="v805" depart="348.15" route="sr460" type="CarDefault" departLane="random" />
	<vehicle id="v1890" depart="348.39" route="sr461" type="CarDefault" departLane="random" />
	<vehicle id="v8" depart="350" route="sr459" type="CarDefault" departLane="random" />
	<vehicle id="v157" depart="351.88" route="sr459" type="CarDefault" departLane="random" />
	<vehicle id="v2630" depart="352.63" route="sr462" type="CarDefault" departLane="random" />
	<vehicle id="v1891" depart="353.23" route="sr461" type="CarDefault" departLane="random" />
	<vehicle id="v806" depart="355.56" route="sr460" type="CarDefault" departLane="random" />
	<vehicle id="v158" depart="357.29" route="sr459" type="CarDefault" departLane="random" />
	<vehicle id="v2631" depart="357.89" route="sr462" type="CarDefault" departLane="random" />
	<vehicle id="v1892" depart="358.06" route="sr461" type="CarDefault" departLane="random" />
	<vehicle id="v159" depart="362.71" route="sr459" type="CarDefault" departLane="random" />
	<vehicle id="v1893" depart="362.9" route="sr461" type="CarDefault" departLane="random" />
	<vehicle id="v807" depart="362.96" route="sr460" type="CarDefault" departLane="random" />
	<vehicle id="v2632" depart="363.16" route="sr462" type="CarDefault" departLane="random" />
	<vehicle id="v9" depart="365" route="sr459" type="CarDefault" departLane="random" />
	<vehicle id="v1894" depart="367.74" route="sr461" type="CarDefault" departLane="random" />
	<vehicle id="v160" depart="368.12" route="sr459" type="CarDefault" departLane="random" />
	<vehicle id="v2633" depart="368.42" route="sr462" type="CarDefault" departLane="random" />
	<vehicle id="v808" depart="370.37" route="sr460" type="CarDefault" departLane="random" />
	<vehicle id="v1895" depart="372.58" route="sr461" type="CarDefault" departLane="random" />
	<vehicle id="v161" depart="373.53" route="sr459" type="CarDefault" departLane="random" />
	<vehicle id="v2634" depart="373.68" route="sr462" type="CarDefault" departLane="random" />
	<vehicle id="v1747" depart="374" route="sr461" type="CarDefault" departLane="random" />
	<vehicle id="v1896" depart="377.42" route="sr461" type="CarDefault" departLane="random" />
	<vehicle id="v809" depart="377.78" route="sr460" type="CarDefault" departLane="random" />
	<vehicle id="v162" depart="378.95" route="sr459" type="CarDefault" departLane="random" />
	<vehicle id="v2635" depart="378.95" route="sr462" type="CarDefault" departLane="random" />
	<vehicle id="v1897" depart="382.26" route="sr461" type="CarDefault" departLane="random" />
	<vehicle id="v2636" depart="384.21" route="sr462" type="CarDefault" departLane="random" />
	<vehicle id="v163" depart="384.36" route="sr459" type="CarDefault" departLane="random" />
	<vehicle id="v810" depart="385.19" route="sr460" type="CarDefault" departLane="random" />
	<vehicle id="v1898" depart="387.1" route="sr461" type="CarDefault" departLane="random" />
	<vehicle id="v2637" depart="389.47" route="sr462" type="CarDefault" departLane="random" />
	<vehicle id="v164" depart="389.77" route="sr459" type="CarDefault" departLane="random" />
	<vehicle id="v1899" depart="391.94" route="sr461" type="CarDefault" departLane="random" />
	<vehicle id="v811" depart="392.59" route="sr460" type="CarDefault" departLane="random" />
	<vehicle id="v2638" depart="394.74" route="sr462" type="CarDefault" departLane="random" />
	<vehicle id="v165" depart="395.19" route="sr459" type="CarDefault" departLane="random" />
	<vehicle id="v1900" depart="396.77" route="sr461" type="CarDefault" departLane="random" />
	<vehicle id="v812" depart="400.0" route="sr460" type="CarDefault" departLane="random" />
	<vehicle id="v2639" depart="400.0" route="sr462" type="CarDefault" departLane="random" />
	<vehicle id="v166" depart="400.6" route="sr459" type="CarDefault" departLane="random" />
	<vehicle id="v1901" depart="401.61" route="sr461" type="CarDefault" departLane="random" />
	<vehicle id="v2640" depart="405.26" route="sr462" type="CarDefault" departLane="random" />
	<vehicle id="v167" depart="406.02" route="sr459" type="CarDefault" departLane="random" />
	<vehicle id="v1902" depart="406.45" route="sr461" type="CarDefault" departLane="random" />
	<vehicle id="v813" depart="407.41" route="sr460" type="CarDefault" departLane="random" />
	<vehicle id="v2641" depart="410.53" route="sr462" type="CarDefault" departLane="random" />
	<vehicle id="v1903" depart="411.29" route="sr461" type="CarDefault" departLane="random" />
	<vehicle id="v168" depart="411.43" route="sr459" type="CarDefault" departLane="random" />
	<vehicle id="v814" depart="414.81" route="sr460" type="CarDefault" departLane="random" />