<?xml version='1.0' encoding='utf-8'?>
<net xmlns:xsi="http://www.w3.org/2001/XMLSchema-instance" version="1.9" junctionCornerDetail="5" limitTurnSpeed="5.50" xsi:noNamespaceSchemaLocation="http://sumo.dlr.de/xsd/net_file.xsd">
	<location netOffset="-456549.58,-5550032.66" convBoundary="111.53,0.00,1099.45,927.42" origBoundary="14.392383,50.101022,14.411015,50.110847" projParameter="+proj=utm +zone=33 +ellps=WGS84 +datum=WGS84 +units=m +no_defs" />
	<subgraphs>
		<subgraph id="sg0" from_junction="15" to_junction="73" edges="0,173,158,141,43,153,102,129,172,148,52,103,28,44,100,6,183,149,171,160,170,97,125,143,31,119,112,115,19,117,138,139,75,74,23,127,25,111,101,57,114,145,36,99,159,120,175,137,147,14,130,32,152,21,167,163,136,77,182,9,18,7,5,128,51,15,54,29,11,78,8,2,131,79,164,20,41" />
		<subgraph id="sg1" from_junction="83" to_junction="70" edges="30,27,89,56,26,174,64,142,153,148,69,162,149,160,135,1,105,154,125,70,71,143,115,50,75,23,74,176,151,101,157,114,36,60,83,24,40,130,88,87,55,3,126,146,118,168,144,167,163,136,113,166,124,47,73,7,95,104,131,78,155,61,62,164,20,169,63" />
		<subgraph id="sg2" from_junction="78" to_junction="19" edges="30,89,147,0,141,88,130,32,87,174,12,153,142,126,100,178,183,167,113,77,182,1,31,128,119,112,54,22,19,117,11,8,131,2,17,25,111,176,145,99,179,120" />
		<subgraph id="sg3" from_junction="69" to_junction="81" edges="83,135,137,124,73,105,5,54,112,138,13,53,118,57,164,44,163,136,63" />
	</subgraphs>
	<type id="highway.bridleway" priority="1" numLanes="1" speed="2.78" allow="pedestrian" oneway="1" width="2.00" />
	<type id="highway.bus_guideway" priority="1" numLanes="1" speed="27.78" allow="bus" oneway="1" />
	<type id="highway.cycleway" priority="1" numLanes="1" speed="8.33" allow="bicycle" oneway="0" width="1.00" />
	<type id="highway.footway" priority="1" numLanes="1" speed="2.78" allow="pedestrian" oneway="1" width="2.00" />
	<type id="highway.ford" priority="1" numLanes="1" speed="2.78" allow="army" oneway="0" />
	<type id="highway.living_street" priority="2" numLanes="1" speed="2.78" disallow="tram rail_urban rail rail_electric rail_fast ship" oneway="0" />
	<type id="highway.motorway" priority="14" numLanes="2" speed="39.44" allow="private emergency authority army vip passenger hov taxi bus coach delivery truck trailer motorcycle evehicle custom1 custom2" oneway="1" />
	<type id="highway.motorway_link" priority="9" numLanes="1" speed="22.22" allow="private emergency authority army vip passenger hov taxi bus coach delivery truck trailer motorcycle evehicle custom1 custom2" oneway="1" />
	<type id="highway.path" priority="1" numLanes="1" speed="2.78" allow="pedestrian bicycle" oneway="0" width="2.00" />
	<type id="highway.pedestrian" priority="1" numLanes="1" speed="2.78" allow="pedestrian" oneway="1" width="2.00" />
	<type id="highway.primary" priority="12" numLanes="2" speed="27.78" disallow="tram rail_urban rail rail_electric rail_fast ship" oneway="0" />
	<type id="highway.primary_link" priority="7" numLanes="1" speed="22.22" disallow="tram rail_urban rail rail_electric rail_fast ship" oneway="0" />
	<type id="highway.raceway" priority="15" numLanes="2" speed="83.33" allow="vip" oneway="0" />
	<type id="highway.residential" priority="3" numLanes="1" speed="13.89" disallow="tram rail_urban rail rail_electric rail_fast ship" oneway="0" />
	<type id="highway.secondary" priority="11" numLanes="1" speed="27.78" disallow="tram rail_urban rail rail_electric rail_fast ship" oneway="0" />
	<type id="highway.secondary_link" priority="6" numLanes="1" speed="22.22" disallow="tram rail_urban rail rail_electric rail_fast ship" oneway="0" />
	<type id="highway.service" priority="1" numLanes="1" speed="5.56" allow="pedestrian delivery bicycle" oneway="0" />
	<type id="highway.stairs" priority="1" numLanes="1" speed="1.39" allow="pedestrian" oneway="1" width="2.00" />
	<type id="highway.step" priority="1" numLanes="1" speed="1.39" allow="pedestrian" oneway="1" width="2.00" />
	<type id="highway.steps" priority="1" numLanes="1" speed="1.39" allow="pedestrian" oneway="1" width="2.00" />
	<type id="highway.tertiary" priority="10" numLanes="1" speed="22.22" disallow="tram rail_urban rail rail_electric rail_fast ship" oneway="0" />
	<type id="highway.tertiary_link" priority="5" numLanes="1" speed="22.22" disallow="tram rail_urban rail rail_electric rail_fast ship" oneway="0" />
	<type id="highway.track" priority="1" numLanes="1" speed="5.56" allow="pedestrian motorcycle moped bicycle" oneway="0" />
	<type id="highway.trunk" priority="13" numLanes="2" speed="27.78" disallow="pedestrian bicycle tram rail_urban rail rail_electric rail_fast ship" oneway="0" />
	<type id="highway.trunk_link" priority="8" numLanes="1" speed="22.22" disallow="pedestrian bicycle tram rail_urban rail rail_electric rail_fast ship" oneway="0" />
	<type id="highway.unclassified" priority="4" numLanes="1" speed="13.89" disallow="tram rail_urban rail rail_electric rail_fast ship" oneway="0" />
	<type id="highway.unsurfaced" priority="1" numLanes="1" speed="8.33" disallow="tram rail_urban rail rail_electric rail_fast ship" oneway="0" />
	<type id="railway.highspeed" priority="21" numLanes="1" speed="69.44" allow="rail_fast" oneway="1" />
	<type id="railway.light_rail" priority="19" numLanes="1" speed="27.78" allow="rail_urban" oneway="1" />
	<type id="railway.preserved" priority="16" numLanes="1" speed="27.78" allow="rail" oneway="1" />
	<type id="railway.rail" priority="20" numLanes="1" speed="44.44" allow="rail" oneway="1" />
	<type id="railway.subway" priority="18" numLanes="1" speed="27.78" allow="rail_urban" oneway="1" />
	<type id="railway.tram" priority="17" numLanes="1" speed="13.89" allow="tram" oneway="1" />
	<edge id=":1_0" function="internal">
		<lane id=":1_0_0" index="0" disallow="tram rail_urban rail rail_electric rail_fast ship" speed="27.78" length="8.21" shape="176.61,611.16 176.69,613.57 177.12,615.21 177.55,616.85 177.61,619.26" />
		<lane id=":1_0_1" index="1" disallow="tram rail_urban rail rail_electric rail_fast ship" speed="27.78" length="8.21" shape="176.61,611.16 176.19,613.53 175.53,615.09 174.86,616.64 174.42,619.01" />
	</edge>
	<edge id=":10_0" function="internal">
		<lane id=":10_0_0" index="0" disallow="tram rail_urban rail rail_electric rail_fast ship" speed="27.78" length="0.28" shape="158.75,536.98 158.77,536.70" />
	</edge>
	<edge id=":14_0" function="internal">
		<lane id=":14_0_0" index="0" disallow="tram rail_urban rail rail_electric rail_fast ship" speed="3.91" length="2.42" shape="207.21,228.04 206.56,228.12 206.07,228.39 205.75,228.84 205.59,229.48" />
	</edge>
	<edge id=":2_0" function="internal">
		<lane id=":2_0_0" index="0" disallow="tram rail_urban rail rail_electric rail_fast ship" speed="27.78" length="8.21" shape="166.74,742.87 166.80,745.28 167.23,746.92 167.66,748.56 167.74,750.96" />
		<lane id=":2_0_1" index="1" disallow="tram rail_urban rail rail_electric rail_fast ship" speed="27.78" length="8.21" shape="166.74,742.87 166.30,745.24 165.63,746.80 164.97,748.36 164.55,750.73" />
	</edge>
	<edge id=":22_0" function="internal">
		<lane id=":22_0_0" index="0" disallow="tram rail_urban rail rail_electric rail_fast ship" speed="8.33" length="2.88" shape="309.00,235.05 308.18,234.82 307.62,234.63 307.05,234.49 306.21,234.38" />
	</edge>
	<edge id=":23_0" function="internal">
		<lane id=":23_0_0" index="0" disallow="tram rail_urban rail rail_electric rail_fast ship" speed="6.47" length="9.08" shape="528.14,312.87 525.69,312.29 523.67,312.63 522.07,313.90 520.90,316.08" />
	</edge>
	<edge id=":23_1" function="internal">
		<lane id=":23_1_0" index="0" disallow="tram rail_urban rail rail_electric rail_fast ship" speed="13.89" length="11.22" shape="528.14,312.87 517.65,308.87" />
	</edge>
	<edge id=":23_2" function="internal">
		<lane id=":23_2_0" index="0" disallow="tram rail_urban rail rail_electric rail_fast ship" speed="3.65" length="1.44" shape="528.14,312.87 527.31,311.69" />
	</edge>
	<edge id=":23_6" function="internal">
		<lane id=":23_6_0" index="0" disallow="tram rail_urban rail rail_electric rail_fast ship" speed="3.65" length="3.23" shape="527.31,311.69 527.23,310.80 527.89,310.20 529.30,309.89" />
	</edge>
	<edge id=":23_3" function="internal">
		<lane id=":23_3_0" index="0" disallow="tram rail_urban rail rail_electric rail_fast ship" speed="13.89" length="11.27" shape="518.76,305.88 529.30,309.89" />
	</edge>
	<edge id=":23_4" function="internal">
		<lane id=":23_4_0" index="0" disallow="tram rail_urban rail rail_electric rail_fast ship" speed="7.33" length="2.58" shape="518.76,305.88 520.83,307.23 520.88,307.33" />
	</edge>
	<edge id=":23_5" function="internal">
		<lane id=":23_5_0" index="0" disallow="tram rail_urban rail rail_electric rail_fast ship" speed="3.65" length="1.44" shape="518.76,305.88 519.61,307.04" />
	</edge>
	<edge id=":23_7" function="internal">
		<lane id=":23_7_0" index="0" disallow="tram rail_urban rail rail_electric rail_fast ship" speed="7.33" length="9.11" shape="520.88,307.33 521.87,309.38 521.90,312.33 520.90,316.08" />
	</edge>
	<edge id=":23_8" function="internal">
		<lane id=":23_8_0" index="0" disallow="tram rail_urban rail rail_electric rail_fast ship" speed="3.65" length="3.23" shape="519.61,307.04 519.71,307.93 519.05,308.54 517.65,308.87" />
	</edge>
	<edge id=":24_0" function="internal">
		<lane id=":24_0_0" index="0" disallow="tram rail_urban rail rail_electric rail_fast ship" speed="12.50" length="11.21" shape="648.40,357.37 637.89,353.46" />
	</edge>
	<edge id=":24_1" function="internal">
		<lane id=":24_1_0" index="0" disallow="tram rail_urban rail rail_electric rail_fast ship" speed="3.65" length="1.44" shape="648.40,357.37 647.56,356.20" />
	</edge>
	<edge id=":24_6" function="internal">
		<lane id=":24_6_0" index="0" disallow="tram rail_urban rail rail_electric rail_fast ship" speed="3.65" length="3.23" shape="647.56,356.20 647.46,355.31 648.12,354.70 649.53,354.38" />
	</edge>
	<edge id=":24_2" function="internal">
		<lane id=":24_2_0" index="0" disallow="tram rail_urban rail rail_electric rail_fast ship" speed="13.89" length="11.23" shape="639.00,350.46 649.53,354.38" />
	</edge>
	<edge id=":24_3" function="internal">
		<lane id=":24_3_0" index="0" disallow="tram rail_urban rail rail_electric rail_fast ship" speed="3.65" length="1.44" shape="639.00,350.46 639.85,351.62" />
	</edge>
	<edge id=":24_7" function="internal">
		<lane id=":24_7_0" index="0" disallow="tram rail_urban rail rail_electric rail_fast ship" speed="3.65" length="3.23" shape="639.85,351.62 639.95,352.51 639.30,353.12 637.89,353.46" />
	</edge>
	<edge id=":24_4" function="internal">
		<lane id=":24_4_0" index="0" disallow="tram rail_urban rail rail_electric rail_fast ship" speed="6.48" length="9.03" shape="641.15,360.65 641.70,358.23 641.34,356.23 640.07,354.64 637.89,353.46" />
	</edge>
	<edge id=":24_5" function="internal">
		<lane id=":24_5_0" index="0" disallow="tram rail_urban rail rail_electric rail_fast ship" speed="7.35" length="11.74" shape="641.15,360.65 642.86,357.17 644.83,354.97 647.05,354.03 649.53,354.38" />
	</edge>
	<edge id=":27_0" function="internal">
		<lane id=":27_0_0" index="0" disallow="tram rail_urban rail rail_electric rail_fast ship" speed="22.22" length="11.24" shape="932.36,245.01 935.07,255.92" />
	</edge>
	<edge id=":27_1" function="internal">
		<lane id=":27_1_0" index="0" disallow="tram rail_urban rail rail_electric rail_fast ship" speed="6.30" length="9.04" shape="932.36,245.01 932.63,247.51 932.01,249.42 930.50,250.74 928.09,251.47" />
	</edge>
	<edge id=":31_0" function="internal">
		<lane id=":31_0_0" index="0" disallow="tram rail_urban rail rail_electric rail_fast ship" speed="6.45" length="9.03" shape="196.63,361.35 196.70,363.84 197.55,365.68 199.18,366.88 201.60,367.45" />
	</edge>
	<edge id=":31_1" function="internal">
		<lane id=":31_1_0" index="0" disallow="tram rail_urban rail rail_electric rail_fast ship" speed="27.78" length="11.24" shape="196.63,361.35 195.47,372.53" />
	</edge>
	<edge id=":32_0" function="internal">
		<lane id=":32_0_0" index="0" disallow="tram rail_urban rail rail_electric rail_fast ship" speed="6.50" length="9.03" shape="235.58,369.58 238.05,369.38 239.86,368.44 241.01,366.75 241.50,364.33" />
	</edge>
	<edge id=":32_1" function="internal">
		<lane id=":32_1_0" index="0" disallow="tram rail_urban rail rail_electric rail_fast ship" speed="11.11" length="11.06" shape="235.58,369.58 246.58,370.72" />
	</edge>
	<edge id=":33_0" function="internal">
		<lane id=":33_0_0" index="0" disallow="tram rail_urban rail rail_electric rail_fast ship" speed="8.33" length="11.44" shape="279.14,375.45 282.30,375.88 284.79,376.32 287.25,376.89 290.33,377.74" />
	</edge>
	<edge id=":33_1" function="internal">
		<lane id=":33_1_0" index="0" disallow="tram rail_urban rail rail_electric rail_fast ship" speed="6.33" length="9.04" shape="279.14,375.45 281.56,376.12 283.11,377.40 283.80,379.29 283.63,381.79" />
	</edge>
	<edge id=":34_0" function="internal">
		<lane id=":34_0_0" index="0" disallow="tram rail_urban rail rail_electric rail_fast ship" speed="6.51" length="8.81" shape="331.27,383.80 330.81,386.16 331.20,388.12 332.44,389.69 334.54,390.87" />
	</edge>
	<edge id=":34_1" function="internal">
		<lane id=":34_1_0" index="0" disallow="tram rail_urban rail rail_electric rail_fast ship" speed="8.33" length="10.78" shape="324.32,387.43 327.29,388.30 329.48,388.99 331.65,389.76 334.54,390.87" />
	</edge>
	<edge id=":35_0" function="internal">
		<lane id=":35_0_0" index="0" disallow="tram rail_urban rail rail_electric rail_fast ship" speed="6.55" length="8.63" shape="256.37,508.96 256.20,511.32 256.80,513.21 258.16,514.63 260.27,515.59" />
	</edge>
	<edge id=":35_1" function="internal">
		<lane id=":35_1_0" index="0" disallow="tram rail_urban rail rail_electric rail_fast ship" speed="8.33" length="10.50" shape="250.07,513.15 253.06,513.73 255.21,514.19 257.34,514.75 260.27,515.59" />
	</edge>
	<edge id=":36_0" function="internal">
		<lane id=":36_0_0" index="0" disallow="tram rail_urban rail rail_electric rail_fast ship" speed="6.99" length="9.62" shape="334.09,538.30 331.36,537.96 329.14,538.45 327.42,539.75 326.20,541.87" />
	</edge>
	<edge id=":36_1" function="internal">
		<lane id=":36_1_0" index="0" disallow="tram rail_urban rail rail_electric rail_fast ship" speed="7.81" length="14.63" shape="334.09,538.30 330.31,536.75 328.08,534.40 327.39,531.24 328.24,527.27" />
	</edge>
	<edge id=":36_2" function="internal">
		<lane id=":36_2_0" index="0" disallow="tram rail_urban rail rail_electric rail_fast ship" speed="3.65" length="4.67" shape="334.09,538.30 333.12,537.23 332.93,536.36 333.51,535.68 334.87,535.19" />
	</edge>
	<edge id=":36_3" function="internal">
		<lane id=":36_3_0" index="0" disallow="tram rail_urban rail rail_electric rail_fast ship" speed="6.28" length="9.06" shape="331.25,528.36 330.72,530.82 331.14,532.78 332.53,534.24 334.87,535.19" />
	</edge>
	<edge id=":36_4" function="internal">
		<lane id=":36_4_0" index="0" disallow="tram rail_urban rail rail_electric rail_fast ship" speed="18.05" length="14.42" shape="331.25,528.36 326.20,541.87" />
	</edge>
	<edge id=":36_5" function="internal">
		<lane id=":36_5_0" index="0" disallow="tram rail_urban rail rail_electric rail_fast ship" speed="3.65" length="1.44" shape="331.25,528.36 330.08,529.22" />
	</edge>
	<edge id=":36_12" function="internal">
		<lane id=":36_12_0" index="0" disallow="tram rail_urban rail rail_electric rail_fast ship" speed="3.65" length="3.23" shape="330.08,529.22 329.19,529.32 328.58,528.67 328.24,527.27" />
	</edge>
	<edge id=":36_6" function="internal">
		<lane id=":36_6_0" index="0" disallow="tram rail_urban rail rail_electric rail_fast ship" speed="7.35" length="11.08" shape="320.07,532.91 322.64,533.14 324.86,532.28 326.73,530.32 328.24,527.27" />
	</edge>
	<edge id=":36_7" function="internal">
		<lane id=":36_7_0" index="0" disallow="tram rail_urban rail rail_electric rail_fast ship" speed="8.33" length="14.99" shape="320.07,532.91 323.73,533.67 327.45,534.11 331.18,534.52 334.87,535.19" />
	</edge>
	<edge id=":36_8" function="internal">
		<lane id=":36_8_0" index="0" disallow="tram rail_urban rail rail_electric rail_fast ship" speed="7.34" length="12.58" shape="320.07,532.91 323.69,534.39 325.92,536.37 326.75,538.86 326.20,541.87" />
	</edge>
	<edge id=":36_9" function="internal">
		<lane id=":36_9_0" index="0" disallow="tram rail_urban rail rail_electric rail_fast ship" speed="18.05" length="14.37" shape="323.21,540.73 328.24,527.27" />
	</edge>
	<edge id=":36_10" function="internal">
		<lane id=":36_10_0" index="0" disallow="tram rail_urban rail rail_electric rail_fast ship" speed="8.41" length="3.84" shape="323.21,540.73 325.05,537.49 325.14,537.42" />
	</edge>
	<edge id=":36_11" function="internal">
		<lane id=":36_11_0" index="0" disallow="tram rail_urban rail rail_electric rail_fast ship" speed="3.65" length="1.44" shape="323.21,540.73 324.39,539.89" />
	</edge>
	<edge id=":36_13" function="internal">
		<lane id=":36_13_0" index="0" disallow="tram rail_urban rail rail_electric rail_fast ship" speed="8.41" length="10.51" shape="325.14,537.42 327.60,535.49 330.87,534.72 334.87,535.19" />
	</edge>
	<edge id=":36_14" function="internal">
		<lane id=":36_14_0" index="0" disallow="tram rail_urban rail rail_electric rail_fast ship" speed="3.65" length="3.23" shape="324.39,539.89 325.28,539.80 325.88,540.46 326.20,541.87" />
	</edge>
	<edge id=":37_0" function="internal">
		<lane id=":37_0_0" index="0" disallow="tram rail_urban rail rail_electric rail_fast ship" speed="22.22" length="11.34" shape="378.31,401.73 374.41,412.38" />
	</edge>
	<edge id=":37_1" function="internal">
		<lane id=":37_1_0" index="0" disallow="tram rail_urban rail rail_electric rail_fast ship" speed="3.65" length="1.44" shape="378.31,401.73 377.16,402.60" />
	</edge>
	<edge id=":37_6" function="internal">
		<lane id=":37_6_0" index="0" disallow="tram rail_urban rail rail_electric rail_fast ship" speed="3.65" length="3.23" shape="377.16,402.60 376.27,402.71 375.64,402.07 375.29,400.67" />
	</edge>
	<edge id=":37_2" function="internal">
		<lane id=":37_2_0" index="0" disallow="tram rail_urban rail rail_electric rail_fast ship" speed="6.41" length="9.04" shape="368.15,403.92 370.57,404.51 372.56,404.16 374.14,402.88 375.29,400.67" />
	</edge>
	<edge id=":37_3" function="internal">
		<lane id=":37_3_0" index="0" disallow="tram rail_urban rail rail_electric rail_fast ship" speed="7.38" length="11.78" shape="368.15,403.92 371.63,405.69 373.83,407.68 374.76,409.91 374.41,412.38" />
	</edge>
	<edge id=":37_4" function="internal">
		<lane id=":37_4_0" index="0" disallow="tram rail_urban rail rail_electric rail_fast ship" speed="22.22" length="11.25" shape="371.42,411.23 375.29,400.67" />
	</edge>
	<edge id=":37_5" function="internal">
		<lane id=":37_5_0" index="0" disallow="tram rail_urban rail rail_electric rail_fast ship" speed="3.65" length="1.44" shape="371.42,411.23 372.60,410.40" />
	</edge>
	<edge id=":37_7" function="internal">
		<lane id=":37_7_0" index="0" disallow="tram rail_urban rail rail_electric rail_fast ship" speed="3.65" length="3.23" shape="372.60,410.40 373.49,410.31 374.09,410.97 374.41,412.38" />
	</edge>
	<edge id=":38_0" function="internal">
		<lane id=":38_0_0" index="0" disallow="tram rail_urban rail rail_electric rail_fast ship" speed="6.58" length="8.78" shape="496.12,384.02 495.65,386.31 496.02,388.26 497.25,389.88 499.32,391.15" />
	</edge>
	<edge id=":38_1" function="internal">
		<lane id=":38_1_0" index="0" disallow="tram rail_urban rail rail_electric rail_fast ship" speed="8.33" length="10.69" shape="496.12,384.02 492.48,394.07" />
	</edge>
	<edge id=":39_0" function="internal">
		<lane id=":39_0_0" index="0" disallow="tram rail_urban rail rail_electric rail_fast ship" speed="7.45" length="9.46" shape="596.85,445.42 595.51,443.43 594.98,441.31 595.25,439.06 596.33,436.69" />
	</edge>
	<edge id=":39_1" function="internal">
		<lane id=":39_1_0" index="0" disallow="tram rail_urban rail rail_electric rail_fast ship" speed="6.36" length="9.04" shape="588.70,438.29 590.93,439.42 592.94,439.53 594.74,438.62 596.33,436.69" />
	</edge>
	<edge id=":4_0" function="internal">
		<lane id=":4_0_0" index="0" disallow="tram rail_urban rail rail_electric rail_fast ship" speed="18.05" length="12.25" shape="960.99,363.88 964.04,375.74" />
	</edge>
	<edge id=":4_1" function="internal">
		<lane id=":4_1_0" index="0" disallow="tram rail_urban rail rail_electric rail_fast ship" speed="5.51" length="9.55" shape="957.89,374.74 959.83,372.46 961.51,371.87 962.91,372.96 964.04,375.74" />
	</edge>
	<edge id=":40_0" function="internal">
		<lane id=":40_0_0" index="0" disallow="tram rail_urban rail rail_electric rail_fast ship" speed="8.33" length="9.76" shape="460.73,540.89 463.31,542.25 465.09,543.29 466.95,543.92 469.77,544.05" />
	</edge>
	<edge id=":40_1" function="internal">
		<lane id=":40_1_0" index="0" disallow="tram rail_urban rail rail_electric rail_fast ship" speed="6.32" length="8.00" shape="460.73,540.89 463.13,542.21 464.67,543.60 465.37,545.07 465.21,546.62" />
	</edge>
	<edge id=":40_2" function="internal">
		<lane id=":40_2_0" index="0" disallow="tram rail_urban rail rail_electric rail_fast ship" speed="7.19" length="7.84" shape="462.20,545.51 462.84,544.99 464.31,544.57 466.62,544.26 469.77,544.05" />
	</edge>
	<edge id=":40_3" function="internal">
		<lane id=":40_3_0" index="0" disallow="tram rail_urban rail rail_electric rail_fast ship" speed="3.65" length="4.67" shape="462.20,545.51 463.37,544.66 464.26,544.56 464.87,545.22 465.21,546.62" />
	</edge>
	<edge id=":41_0" function="internal">
		<lane id=":41_0_0" index="0" disallow="tram rail_urban rail rail_electric rail_fast ship" speed="7.05" length="10.08" shape="444.47,527.87 444.11,530.17 444.77,532.23 446.45,534.05 449.14,535.62" />
	</edge>
	<edge id=":41_1" function="internal">
		<lane id=":41_1_0" index="0" disallow="tram rail_urban rail rail_electric rail_fast ship" speed="8.33" length="10.86" shape="444.47,527.87 443.67,530.85 443.42,533.18 443.18,535.51 442.39,538.50" />
	</edge>
	<edge id=":41_2" function="internal">
		<lane id=":41_2_0" index="0" disallow="tram rail_urban rail rail_electric rail_fast ship" speed="7.02" length="11.39" shape="439.38,537.43 440.70,535.30 442.76,534.29 445.58,534.40 449.14,535.62" />
	</edge>
	<edge id=":41_3" function="internal">
		<lane id=":41_3_0" index="0" disallow="tram rail_urban rail rail_electric rail_fast ship" speed="3.65" length="4.67" shape="439.38,537.43 440.53,536.57 441.42,536.46 442.04,537.10 442.39,538.50" />
	</edge>
	<edge id=":42_0" function="internal">
		<lane id=":42_0_0" index="0" disallow="tram rail_urban rail rail_electric rail_fast ship" speed="6.89" length="9.33" shape="437.40,552.67 436.94,555.07 437.35,557.14 438.64,558.90 440.81,560.33" />
	</edge>
	<edge id=":42_1" function="internal">
		<lane id=":42_1_0" index="0" disallow="tram rail_urban rail rail_electric rail_fast ship" speed="8.33" length="14.53" shape="437.40,552.67 432.50,566.35" />
	</edge>
	<edge id=":42_2" function="internal">
		<lane id=":42_2_0" index="0" disallow="tram rail_urban rail rail_electric rail_fast ship" speed="8.33" length="14.46" shape="437.40,552.67 435.65,555.96 433.13,558.03 429.84,558.90 425.79,558.54" />
	</edge>
	<edge id=":42_3" function="internal">
		<lane id=":42_3_0" index="0" disallow="tram rail_urban rail rail_electric rail_fast ship" speed="3.65" length="4.67" shape="437.40,552.67 436.25,553.54 435.36,553.65 434.74,553.01 434.39,551.61" />
	</edge>
	<edge id=":42_4" function="internal">
		<lane id=":42_4_0" index="0" disallow="tram rail_urban rail rail_electric rail_fast ship" speed="7.05" length="9.76" shape="426.47,555.42 429.25,555.67 431.50,555.13 433.21,553.77 434.39,551.61" />
	</edge>
	<edge id=":42_5" function="internal">
		<lane id=":42_5_0" index="0" disallow="tram rail_urban rail rail_electric rail_fast ship" speed="8.33" length="15.20" shape="426.47,555.42 430.14,556.32 433.78,557.45 437.36,558.79 440.81,560.33" />
	</edge>
	<edge id=":42_6" function="internal">
		<lane id=":42_6_0" index="0" disallow="tram rail_urban rail rail_electric rail_fast ship" speed="7.78" length="14.74" shape="426.47,555.42 430.33,556.85 432.62,559.15 433.35,562.32 432.50,566.35" />
	</edge>
	<edge id=":42_7" function="internal">
		<lane id=":42_7_0" index="0" disallow="tram rail_urban rail rail_electric rail_fast ship" speed="3.65" length="4.67" shape="426.47,555.42 427.47,556.45 427.69,557.32 427.13,558.02 425.79,558.54" />
	</edge>
	<edge id=":42_8" function="internal">
		<lane id=":42_8_0" index="0" disallow="tram rail_urban rail rail_electric rail_fast ship" speed="6.23" length="9.05" shape="429.50,565.26 430.01,562.78 429.57,560.84 428.16,559.43 425.79,558.54" />
	</edge>
	<edge id=":42_9" function="internal">
		<lane id=":42_9_0" index="0" disallow="tram rail_urban rail rail_electric rail_fast ship" speed="8.33" length="14.50" shape="429.50,565.26 434.39,551.61" />
	</edge>
	<edge id=":42_10" function="internal">
		<lane id=":42_10_0" index="0" disallow="tram rail_urban rail rail_electric rail_fast ship" speed="7.78" length="14.43" shape="429.50,565.26 431.42,561.62 433.94,559.59 437.07,559.16 440.81,560.33" />
	</edge>
	<edge id=":42_11" function="internal">
		<lane id=":42_11_0" index="0" disallow="tram rail_urban rail rail_electric rail_fast ship" speed="3.65" length="4.67" shape="429.50,565.26 430.66,564.40 431.55,564.30 432.16,564.95 432.50,566.35" />
	</edge>
	<edge id=":43_0" function="internal">
		<lane id=":43_0_0" index="0" disallow="tram rail_urban rail rail_electric rail_fast ship" speed="8.33" length="12.27" shape="459.30,562.62 458.21,566.34 457.87,569.54 458.29,572.22 459.47,574.39" />
	</edge>
	<edge id=":43_1" function="internal">
		<lane id=":43_1_0" index="0" disallow="tram rail_urban rail rail_electric rail_fast ship" speed="3.65" length="4.67" shape="459.30,562.62 458.14,563.47 457.25,563.57 456.63,562.91 456.30,561.51" />
	</edge>
	<edge id=":43_2" function="internal">
		<lane id=":43_2_0" index="0" disallow="tram rail_urban rail rail_electric rail_fast ship" speed="6.37" length="9.26" shape="448.87,564.27 451.37,565.09 453.44,564.91 455.09,563.71 456.30,561.51" />
	</edge>
	<edge id=":43_3" function="internal">
		<lane id=":43_3_0" index="0" disallow="tram rail_urban rail rail_electric rail_fast ship" speed="8.33" length="14.78" shape="448.87,564.27 451.97,566.23 454.67,568.70 457.11,571.48 459.47,574.39" />
	</edge>
	<edge id=":44_0" function="internal">
		<lane id=":44_0_0" index="0" disallow="tram rail_urban rail rail_electric rail_fast ship" speed="6.24" length="11.01" shape="653.69,712.68 650.30,710.98 647.78,710.69 646.11,711.82 645.29,714.36" />
	</edge>
	<edge id=":44_1" function="internal">
		<lane id=":44_1_0" index="0" disallow="tram rail_urban rail rail_electric rail_fast ship" speed="3.65" length="1.33" shape="653.69,712.68 653.14,711.47" />
	</edge>
	<edge id=":44_6" function="internal">
		<lane id=":44_6_0" index="0" disallow="tram rail_urban rail rail_electric rail_fast ship" speed="3.65" length="3.35" shape="653.14,711.47 653.10,711.36 653.19,710.47 653.95,710.01 655.39,709.97" />
	</edge>
	<edge id=":44_2" function="internal">
		<lane id=":44_2_0" index="0" disallow="tram rail_urban rail rail_electric rail_fast ship" speed="11.11" length="18.58" shape="638.31,702.74 642.36,704.23 647.02,706.01 651.60,707.96 655.39,709.97" />
	</edge>
	<edge id=":44_3" function="internal">
		<lane id=":44_3_0" index="0" disallow="tram rail_urban rail rail_electric rail_fast ship" speed="8.97" length="14.77" shape="638.31,702.74 641.75,704.59 644.06,707.14 645.24,710.40 645.29,714.36" />
	</edge>
	<edge id=":44_4" function="internal">
		<lane id=":44_4_0" index="0" disallow="tram rail_urban rail rail_electric rail_fast ship" speed="7.82" length="18.09" shape="642.12,713.98 643.46,709.41 646.12,707.22 650.10,707.40 655.39,709.97" />
	</edge>
	<edge id=":44_5" function="internal">
		<lane id=":44_5_0" index="0" disallow="tram rail_urban rail rail_electric rail_fast ship" speed="3.65" length="1.44" shape="642.12,713.98 643.05,712.88" />
	</edge>
	<edge id=":44_7" function="internal">
		<lane id=":44_7_0" index="0" disallow="tram rail_urban rail rail_electric rail_fast ship" speed="3.65" length="3.23" shape="643.05,712.88 643.89,712.58 644.64,713.07 645.29,714.36" />
	</edge>
	<edge id=":45_0" function="internal">
		<lane id=":45_0_0" index="0" disallow="tram rail_urban rail rail_electric rail_fast ship" speed="7.52" length="11.53" shape="652.20,748.87 649.31,748.14 646.76,748.54 644.53,750.06 642.63,752.71" />
	</edge>
	<edge id=":45_1" function="internal">
		<lane id=":45_1_0" index="0" disallow="tram rail_urban rail rail_electric rail_fast ship" speed="13.89" length="18.67" shape="652.20,748.87 648.13,747.43 643.31,746.03 638.49,744.64 634.40,743.25" />
	</edge>
	<edge id=":45_2" function="internal">
		<lane id=":45_2_0" index="0" disallow="tram rail_urban rail rail_electric rail_fast ship" speed="12.28" length="9.38" shape="652.20,748.87 647.87,746.54 644.49,743.62" />
	</edge>
	<edge id=":45_3" function="internal">
		<lane id=":45_3_0" index="0" disallow="tram rail_urban rail rail_electric rail_fast ship" speed="6.89" length="9.59" shape="652.20,748.87 648.56,746.72 647.05,744.28 647.62,741.85" />
	</edge>
	<edge id=":45_16" function="internal">
		<lane id=":45_16_0" index="0" disallow="tram rail_urban rail rail_electric rail_fast ship" speed="12.28" length="8.62" shape="644.49,743.62 642.05,740.12 640.55,736.03" />
	</edge>
	<edge id=":45_17" function="internal">
		<lane id=":45_17_0" index="0" disallow="tram rail_urban rail rail_electric rail_fast ship" speed="6.89" length="4.42" shape="647.62,741.85 647.69,741.55 650.48,738.53" />
	</edge>
	<edge id=":45_4" function="internal">