<?xml version='1.0' encoding='utf-8'?>
<routes>
	<vType accel="3.0" decel="6.0" id="CarDefault" length="5.0" minGap="2.5" maxSpeed="50.0" sigma="0.5" />
	<route id="r674" edges="55 169 146 153 105 1 164 104 40 70 144" fromJunction="83" toJunction="70" />
	<route id="sr190" edges="13 83 118 136 137 138 5 63 135 163 54 53" fromJunction="69" toJunction="81" />
	<route id="sr191" edges="22 12 112 19 8 0 32 31 182 87 88 89 179 178" fromJunction="78" toJunction="19" />
	<route id="r673" edges="13 83 118 136 137 138 5 44 73 105 54 53" fromJunction="69" toJunction="81" />
	<route id="sr189" edges="55 169 130 131 56 73 105 1 30 50 157 154 125 143 144" fromJunction="83" toJunction="70" />
	<route id="r675" edges="15 139 97 119 117 120 25 11 52 51 21 32 31 182 75 78 79" fromJunction="15" toJunction="73" />
	<route id="sr188" edges="15 139 97 119 117 120 136 137 138 5 9 21 32 31 182 75 78 79" fromJunction="15" toJunction="73" />
	<vehicle id="v0" depart="0.0" route="r675" type="CarDefault" departLane="random" />
	<vehicle id="v977" depart="0.0" route="r674" type="CarDefault" departLane="random" />
	<vehicle id="v2145" depart="0.0" route="r673" type="CarDefault" departLane="random" />
	<vehicle id="v2757" depart="0.0" route="sr191" type="CarDefault" departLane="random" />
	<vehicle id="v2146" depart="5.89" route="r673" type="CarDefault" departLane="random" />
	<vehicle id="v978" depart="6.7" route="r674" type="CarDefault" departLane="random" />
	<vehicle id="v1" depart="7.41" route="r675" type="CarDefault" departLane="random" />
	<vehicle id="v2758" depart="8.82" route="sr191" type="CarDefault" departLane="random" />
	<vehicle id="v2147" depart="11.78" route="r673" type="CarDefault" departLane="random" />
	<vehicle id="v979" depart="13.41" route="r674" type="CarDefault" departLane="random" />
	<vehicle id="v2" depart="14.81" route="r675" type="CarDefault" departLane="random" />
	<vehicle id="v2759" depart="17.65" route="sr191" type="CarDefault" departLane="random" />
	<vehicle id="v2148" depart="17.68" route="r673" type="CarDefault" departLane="random" />
	<vehicle id="v980" depart="20.11" route="r674" type="CarDefault" departLane="random" />
	<vehicle id="v3" depart="22.22" route="r675" type="CarDefault" departLane="random" />
	<vehicle id="v2149" depart="23.57" route="r673" type="CarDefault" departLane="random" />
	<vehicle id="v2760" depart="26.47" route="sr191" type="CarDefault" departLane="random" />
	<vehicle id="v981" depart="26.82" route="r674" type="CarDefault" departLane="random" />
	<vehicle id="v2150" depart="29.46" route="r673" type="CarDefault" departLane="random" />
	<vehicle id="v4" depart="29.63" route="r675" type="CarDefault" departLane="random" />
	<vehicle id="v982" depart="33.52" route="r674" type="CarDefault" departLane="random" />
	<vehicle id="v2761" depart="35.29" route="sr191" type="CarDefault" departLane="random" />
	<vehicle id="v2151" depart="35.35" route="r673" type="CarDefault" departLane="random" />
	<vehicle id="v5" depart="37.04" route="r675" type="CarDefault" departLane="random" />
	<vehicle id="v2058" depart="40" route="r673" type="CarDefault" departLane="random" />
	<vehicle id="v983" depart="40.22" route="r674" type="CarDefault" departLane="random" />
	<vehicle id="v2152" depart="41.24" route="r673" type="CarDefault" departLane="random" />
	<vehicle id="v2762" depart="44.12" route="sr191" type="CarDefault" departLane="random" />
	<vehicle id="v6" depart="44.44" route="r675" type="CarDefault" departLane="random" />
	<vehicle id="v984" depart="46.93" route="r674" type="CarDefault" departLane="random" />
	<vehicle id="v2153" depart="47.14" route="r673" type="CarDefault" departLane="random" />
	<vehicle id="v7" depart="51.85" route="r675" type="CarDefault" departLane="random" />
	<vehicle id="v2763" depart="52.94" route="sr191" type="CarDefault" departLane="random" />
	<vehicle id="v2154" depart="53.03" route="r673" type="CarDefault" departLane="random" />
	<vehicle id="v985" depart="53.63" route="r674" type="CarDefault" departLane="random" />
	<vehicle id="v2155" depart="58.92" route="r673" type="CarDefault" departLane="random" />
	<vehicle id="v8" depart="59.26" route="r675" type="CarDefault" departLane="random" />
	<vehicle id="v986" depart="60.34" route="r674" type="CarDefault" departLane="random" />
	<vehicle id="v2764" depart="61.76" route="sr191" type="CarDefault" departLane="random" />
	<vehicle id="v2156" depart="64.81" route="r673" type="CarDefault" departLane="random" />
	<vehicle id="v9" depart="66.67" route="r675" type="CarDefault" departLane="random" />
	<vehicle id="v987" depart="67.04" route="r674" type="CarDefault" departLane="random" />
	<vehicle id="v2765" depart="70.59" route="sr191" type="CarDefault" departLane="random" />
	<vehicle id="v2157" depart="70.7" route="r673" type="CarDefault" departLane="random" />
	<vehicle id="v988" depart="73.74" route="r674" type="CarDefault" departLane="random" />
	<vehicle id="v2059" depart="74" route="r673" type="CarDefault" departLane="random" />
	<vehicle id="v10" depart="74.07" route="r675" type="CarDefault" departLane="random" />
	<vehicle id="v2158" depart="76.6" route="r673" type="CarDefault" departLane="random" />
	<vehicle id="v2766" depart="79.41" route="sr191" type="CarDefault" departLane="random" />
	<vehicle id="v989" depart="80.45" route="r674" type="CarDefault" departLane="random" />
	<vehicle id="v11" depart="81.48" route="r675" type="CarDefault" departLane="random" />
	<vehicle id="v2159" depart="82.49" route="r673" type="CarDefault" departLane="random" />
	<vehicle id="v990" depart="87.15" route="r674" type="CarDefault" departLane="random" />
	<vehicle id="v2767" depart="88.24" route="sr191" type="CarDefault" departLane="random" />
	<vehicle id="v2160" depart="88.38" route="r673" type="CarDefault" departLane="random" />
	<vehicle id="v12" depart="88.89" route="r675" type="CarDefault" departLane="random" />
	<vehicle id="v991" depart="93.85" route="r674" type="CarDefault" departLane="random" />
	<vehicle id="v2161" depart="94.27" route="r673" type="CarDefault" departLane="random" />
	<vehicle id="v2060" depart="96" route="r673" type="CarDefault" departLane="random" />
	<vehicle id="v13" depart="96.3" route="r675" type="CarDefault" departLane="random" />
	<vehicle id="v2768" depart="97.06" route="sr191" type="CarDefault" departLane="random" />
	<vehicle id="v2162" depart="100.16" route="r673" type="CarDefault" departLane="random" />
	<vehicle id="v992" depart="100.56" route="r674" type="CarDefault" departLane="random" />
	<vehicle id="v14" depart="103.7" route="r675" type="CarDefault" departLane="random" />
	<vehicle id="v2769" depart="105.88" route="sr191" type="CarDefault" departLane="random" />
	<vehicle id="v2163" depart="106.06" route="r673" type="CarDefault" departLane="random" />
	<vehicle id="v993" depart="107.26" route="r674" type="CarDefault" departLane="random" />
	<vehicle id="v15" depart="111.11" route="r675" type="CarDefault" departLane="random" />
	<vehicle id="v2164" depart="111.95" route="r673" type="CarDefault" departLane="random" />
	<vehicle id="v994" depart="113.97" route="r674" type="CarDefault" departLane="random" />
	<vehicle id="v2770" depart="114.71" route="sr191" type="CarDefault" departLane="random" />
	<vehicle id="v2061" depart="116" route="r673" type="CarDefault" departLane="random" />
	<vehicle id="v2165" depart="117.84" route="r673" type="CarDefault" departLane="random" />
	<vehicle id="v16" depart="118.52" route="r675" type="CarDefault" departLane="random" />
	<vehicle id="v995" depart="120.67" route="r674" type="CarDefault" departLane="random" />
	<vehicle id="v2771" depart="123.53" route="sr191" type="CarDefault" departLane="random" />
	<vehicle id="v2166" depart="123.73" route="r673" type="CarDefault" departLane="random" />
	<vehicle id="v17" depart="125.93" route="r675" type="CarDefault" departLane="random" />
	<vehicle id="v996" depart="127.37" route="r674" type="CarDefault" departLane="random" />
	<vehicle id="v2167" depart="129.62" route="r673" type="CarDefault" departLane="random" />
	<vehicle id="v2062" depart="130" route="r673" type="CarDefault" departLane="random" />
	<vehicle id="v2772" depart="132.35" route="sr191" type="CarDefault" departLane="random" />
	<vehicle id="v18" depart="133.33" route="r675" type="CarDefault" departLane="random" />
	<vehicle id="v997" depart="134.08" route="r674" type="CarDefault" departLane="random" />
	<vehicle id="v2168" depart="135.52" route="r673" type="CarDefault" departLane="random" />
	<vehicle id="v19" depart="140.74" route="r675" type="CarDefault" departLane="random" />
	<vehicle id="v998" depart="140.78" route="r674" type="CarDefault" departLane="random" />
	<vehicle id="v2773" depart="141.18" route="sr191" type="CarDefault" departLane="random" />
	<vehicle id="v2169" depart="141.41" route="r673" type="CarDefault" departLane="random" />
	<vehicle id="v2063" depart="144" route="r673" type="CarDefault" departLane="random" />
	<vehicle id="v2170" depart="147.3" route="r673" type="CarDefault" departLane="random" />
	<vehicle id="v999" depart="147.49" route="r674" type="CarDefault" departLane="random" />
	<vehicle id="v20" depart="148.15" route="r675" type="CarDefault" departLane="random" />
	<vehicle id="v2774" depart="150.0" route="sr191" type="CarDefault" departLane="random" />
	<vehicle id="v2171" depart="153.19" route="r673" type="CarDefault" departLane="random" />
	<vehicle id="v1000" depart="154.19" route="r674" type="CarDefault" departLane="random" />
	<vehicle id="v21" depart="155.56" route="r675" type="CarDefault" departLane="random" />
	<vehicle id="v2775" depart="158.82" route="sr191" type="CarDefault" departLane="random" />
	<vehicle id="v2172" depart="159.08" route="r673" type="CarDefault" departLane="random" />
	<vehicle id="v1001" depart="160.89" route="r674" type="CarDefault" departLane="random" />
	<vehicle id="v2064" depart="161" route="r673" type="CarDefault" departLane="random" />
	<vehicle id="v22" depart="162.96" route="r675" type="CarDefault" departLane="random" />
	<vehicle id="v2173" depart="164.98" route="r673" type="CarDefault" departLane="random" />
	<vehicle id="v1002" depart="167.6" route="r674" type="CarDefault" departLane="random" />
	<vehicle id="v2776" depart="167.65" route="sr191" type="CarDefault" departLane="random" />
	<vehicle id="v23" depart="170.37" route="r675" type="CarDefault" departLane="random" />
	<vehicle id="v2174" depart="170.87" route="r673" type="CarDefault" departLane="random" />
	<vehicle id="v1003" depart="174.3" route="r674" type="CarDefault" departLane="random" />
	<vehicle id="v2777" depart="176.47" route="sr191" type="CarDefault" departLane="random" />
	<vehicle id="v2175" depart="176.76" route="r673" type="CarDefault" departLane="random" />
	<vehicle id="v24" depart="177.78" route="r675" type="CarDefault" departLane="random" />
	<vehicle id="v1004" depart="181.01" route="r674" type="CarDefault" departLane="random" />
	<vehicle id="v2176" depart="182.65" route="r673" type="CarDefault" departLane="random" />
	<vehicle id="v25" depart="185.19" route="r675" type="CarDefault" departLane="random" />
	<vehicle id="v2778" depart="185.29" route="sr191" type="CarDefault" departLane="random" />
	<vehicle id="v1005" depart="187.71" route="r674" type="CarDefault" departLane="random" />
	<vehicle id="v2177" depart="188.54" route="r673" type="CarDefault" departLane="random" />
	<vehicle id="v26" depart="192.59" route="r675" type="CarDefault" departLane="random" />
	<vehicle id="v2779" depart="194.12" route="sr191" type="CarDefault" departLane="random" />
	<vehicle id="v1006" depart="194.41" route="r674" type="CarDefault" departLane="random" />
	<vehicle id="v2178" depart="194.44" route="r673" type="CarDefault" departLane="random" />
	<vehicle id="v2065" depart="198" route="r673" type="CarDefault" departLane="random" />
	<vehicle id="v27" depart="200.0" route="r675" type="CarDefault" departLane="random" />
	<vehicle id="v2179" depart="200.33" route="r673" type="CarDefault" departLane="random" />
	<vehicle id="v1007" depart="201.12" route="r674" type="CarDefault" departLane="random" />
	<vehicle id="v2780" depart="202.94" route="sr191" type="CarDefault" departLane="random" />
	<vehicle id="v2180" depart="206.22" route="r673" type="CarDefault" departLane="random" />
	<vehicle id="v28" depart="207.41" route="r675" type="CarDefault" departLane="random" />
	<vehicle id="v1008" depart="207.82" route="r674" type="CarDefault" departLane="random" />
	<vehicle id="v2781" depart="211.76" route="sr191" type="CarDefault" departLane="random" />
	<vehicle id="v2181" depart="212.11" route="r673" type="CarDefault" departLane="random" />
	<vehicle id="v1009" depart="214.53" route="r674" type="CarDefault" departLane="random" />
	<vehicle id="v29" depart="214.81" route="r675" type="CarDefault" departLane="random" />
	<vehicle id="v2182" depart="218.0" route="r673" type="CarDefault" departLane="random" />
	<vehicle id="v2782" depart="220.59" route="sr191" type="CarDefault" departLane="random" />
	<vehicle id="v1010" depart="221.23" route="r674" type="CarDefault" departLane="random" />
	<vehicle id="v30" depart="222.22" route="r675" type="CarDefault" departLane="random" />
	<vehicle id="v2183" depart="223.9" route="r673" type="CarDefault" departLane="random" />
	<vehicle id="v1011" depart="227.93" route="r674" type="CarDefault" departLane="random" />
	<vehicle id="v2783" depart="229.41" route="sr191" type="CarDefault" departLane="random" />
	<vehicle id="v31" depart="229.63" route="r675" type="CarDefault" departLane="random" />
	<vehicle id="v2184" depart="229.79" route="r673" type="CarDefault" departLane="random" />
	<vehicle id="v1012" depart="234.64" route="r674" type="CarDefault" departLane="random" />
	<vehicle id="v2185" depart="235.68" route="r673" type="CarDefault" departLane="random" />
	<vehicle id="v32" depart="237.04" route="r675" type="CarDefault" departLane="random" />
	<vehicle id="v2784" depart="238.24" route="sr191" type="CarDefault" departLane="random" />
	<vehicle id="v1013" depart="241.34" route="r674" type="CarDefault" departLane="random" />
	<vehicle id="v2186" depart="241.57" route="r673" type="CarDefault" departLane="random" />
	<vehicle id="v33" depart="244.44" route="r675" type="CarDefault" departLane="random" />
	<vehicle id="v2785" depart="247.06" route="sr191" type="CarDefault" departLane="random" />
	<vehicle id="v2187" depart="247.46" route="r673" type="CarDefault" departLane="random" />
	<vehicle id="v1014" depart="248.04" route="r674" type="CarDefault" departLane="random" />
	<vehicle id="v34" depart="251.85" route="r675" type="CarDefault" departLane="random" />
	<vehicle id="v2188" depart="253.36" route="r673" type="CarDefault" departLane="random" />
	<vehicle id="v1015" depart="254.75" route="r674" type="CarDefault" departLane="random" />
	<vehicle id="v2066" depart="255" route="r673" type="CarDefault" departLane="random" />
	<vehicle id="v2786" depart="255.88" route="sr191" type="CarDefault" departLane="random" />
	<vehicle id="v2189" depart="259.25" route="r673" type="CarDefault" departLane="random" />
	<vehicle id="v35" depart="259.26" route="r675" type="CarDefault" departLane="random" />
	<vehicle id="v1016" depart="261.45" route="r674" type="CarDefault" departLane="random" />
	<vehicle id="v2787" depart="264.71" route="sr191" type="CarDefault" departLane="random" />
	<vehicle id="v2190" depart="265.14" route="r673" type="CarDefault" departLane="random" />
	<vehicle id="v36" depart="266.67" route="r675" type="CarDefault" departLane="random" />
	<vehicle id="v2067" depart="267" route="r673" type="CarDefault" departLane="random" />
	<vehicle id="v1017" depart="268.16" route="r674" type="CarDefault" departLane="random" />
	<vehicle id="v2191" depart="271.03" route="r673" type="CarDefault" departLane="random" />
	<vehicle id="v2788" depart="273.53" route="sr191" type="CarDefault" departLane="random" />
	<vehicle id="v37" depart="274.07" route="r675" type="CarDefault" departLane="random" />
	<vehicle id="v1018" depart="274.86" route="r674" type="CarDefault" departLane="random" />
	<vehicle id="v2192" depart="276.92" route="r673" type="CarDefault" departLane="random" />
	<vehicle id="v38" depart="281.48" route="r675" type="CarDefault" departLane="random" />
	<vehicle id="v1019" depart="281.56" route="r674" type="CarDefault" departLane="random" />
	<vehicle id="v2789" depart="282.35" route="sr191" type="CarDefault" departLane="random" />
	<vehicle id="v2193" depart="282.82" route="r673" type="CarDefault" departLane="random" />
	<vehicle id="v1020" depart="288.27" route="r674" type="CarDefault" departLane="random" />
	<vehicle id="v2194" depart="288.71" route="r673" type="CarDefault" departLane="random" />
	<vehicle id="v39" depart="288.89" route="r675" type="CarDefault" departLane="random" />
	<vehicle id="v2790" depart="291.18" route="sr191" type="CarDefault" departLane="random" />
	<vehicle id="v2068" depart="294" route="r673" type="CarDefault" departLane="random" />
	<vehicle id="v2195" depart="294.6" route="r673" type="CarDefault" departLane="random" />
	<vehicle id="v1021" depart="294.97" route="r674" type="CarDefault" departLane="random" />
	<vehicle id="v40" depart="296.3" route="r675" type="CarDefault" departLane="random" />
	<vehicle id="v2791" depart="300.0" route="sr191" type="CarDefault" departLane="random" />
	<vehicle id="v2196" depart="300.49" route="r673" type="CarDefault" departLane="random" />
	<vehicle id="v1022" depart="301.68" route="r674" type="CarDefault" departLane="random" />
	<vehicle id="v41" depart="303.7" route="r675" type="CarDefault" departLane="random" />
	<vehicle id="v2197" depart="306.38" route="r673" type="CarDefault" departLane="random" />
	<vehicle id="v1023" depart="308.38" route="r674" type="CarDefault" departLane="random" />
	<vehicle id="v2792" depart="308.82" route="sr191" type="CarDefault" departLane="random" />
	<vehicle id="v42" depart="311.11" route="r675" type="CarDefault" departLane="random" />
	<vehicle id="v2198" depart="312.27" route="r673" type="CarDefault" departLane="random" />
	<vehicle id="v1024" depart="315.08" route="r674" type="CarDefault" departLane="random" />
	<vehicle id="v2793" depart="317.65" route="sr191" type="CarDefault" departLane="random" />
	<vehicle id="v2199" depart="318.17" route="r673" type="CarDefault" departLane="random" />
	<vehicle id="v43" depart="318.52" route="r675" type="CarDefault" departLane="random" />
	<vehicle id="v1025" depart="321.79" route="r674" type="CarDefault" departLane="random" />
	<vehicle id="v2200" depart="324.06" route="r673" type="CarDefault" departLane="random" />
	<vehicle id="v44" depart="325.93" route="r675" type="CarDefault" departLane="random" />
	<vehicle id="v2794" depart="326.47" route="sr191" type="CarDefault" departLane="random" />
	<vehicle id="v2069" depart="327" route="r673" type="CarDefault" departLane="random" />
	<vehicle id="v1026" depart="328.49" route="r674" type="CarDefault" departLane="random" />
	<vehicle id="v2201" depart="329.95" route="r673" type="CarDefault" departLane="random" />
	<vehicle id="v45" depart="333.33" route="r675" type="CarDefault" departLane="random" />
	<vehicle id="v1027" depart="335.2" route="r674" type="CarDefault" departLane="random" />
	<vehicle id="v2795" depart="335.29" route="sr191" type="CarDefault" departLane="random" />
	<vehicle id="v2202" depart="335.84" route="r673" type="CarDefault" departLane="random" />
	<vehicle id="v46" depart="340.74" route="r675" type="CarDefault" departLane="random" />
	<vehicle id="v2203" depart="341.73" route="r673" type="CarDefault" departLane="random" />
	<vehicle id="v1028" depart="341.9" route="r674" type="CarDefault" departLane="random" />
	<vehicle id="v2796" depart="344.12" route="sr191" type="CarDefault" departLane="random" />
	<vehicle id="v2204" depart="347.63" route="r673" type="CarDefault" departLane="random" />
	<vehicle id="v47" depart="348.15" route="r675" type="CarDefault" departLane="random" />
	<vehicle id="v1029" depart="348.6" route="r674" type="CarDefault" departLane="random" />
	<vehicle id="v2797" depart="352.94" route="sr191" type="CarDefault" departLane="random" />
	<vehicle id="v2205" depart="353.52" route="r673" type="CarDefault" departLane="random" />
	<vehicle id="v1030" depart="355.31" route="r674" type="CarDefault" departLane="random" />
	<vehicle id="v48" depart="355.56" route="r675" type="CarDefault" departLane="random" />
	<vehicle id="v2206" depart="359.41" route="r673" type="CarDefault" departLane="random" />
	<vehicle id="v2798" depart="361.76" route="sr191" type="CarDefault" departLane="random" />
	<vehicle id="v1031" depart="362.01" route="r674" type="CarDefault" departLane="random" />
	<vehicle id="v49" depart="362.96" route="r675" type="CarDefault" departLane="random" />
	<vehicle id="v2207" depart="365.3" route="r673" type="CarDefault" departLane="random" />
	<vehicle id="v1032" depart="368.72" route="r674" type="CarDefault" departLane="random" />
	<vehicle id="v50" depart="370.37" route="r675" type="CarDefault" departLane="random" />
	<vehicle id="v2799" depart="370.59" route="sr191" type="CarDefault" departLane="random" />
	<vehicle id="v2208" depart="371.19" route="r673" type="CarDefault" departLane="random" />
	<vehicle id="v1033" depart="375.42" route="r674" type="CarDefault" departLane="random" />
	<vehicle id="v2209" depart="377.09" route="r673" type="CarDefault" departLane="random" />
	<vehicle id="v51" depart="377.78" route="r675" type="CarDefault" departLane="random" />
	<vehicle id="v2070" depart="379" route="r673" type="CarDefault" departLane="random" />
	<vehicle id="v2800" depart="379.41" route="sr191" type="CarDefault" departLane="random" />
	<vehicle id="v1034" depart="382.12" route="r674" type="CarDefault" departLane="random" />
	<vehicle id="v2210" depart="382.98" route="r673" type="CarDefault" departLane="random" />
	<vehicle id="v52" depart="385.19" route="r675" type="CarDefault" departLane="random" />
	<vehicle id="v2801" depart="388.24" route="sr191" type="CarDefault" departLane="random" />
	<vehicle id="v1035" depart="388.83" route="r674" type="CarDefault" departLane="random" />
	<vehicle id="v2211" depart="388.87" route="r673" type="CarDefault" departLane="random" />
	<vehicle id="v53" depart="392.59" route="r675" type="CarDefault" departLane="random" />
	<vehicle id="v2212" depart="394.76" route="r673" type="CarDefault" departLane="random" />
	<vehicle id="v1036" depart="395.53" route="r674" type="CarDefault" departLane="random" />
	<vehicle id="v2802" depart="397.06" route="sr191" type="CarDefault" departLane="random" />
	<vehicle id="v2071" depart="398" route="r673" type="CarDefault" departLane="random" />
	<vehicle id="v54" depart="400.0" route="r675" type="CarDefault" departLane="random" />
	<vehicle id="v2213" depart="400.65" route="r673" type="CarDefault" departLane="random" />
	<vehicle id="v1037" depart="402.23" route="r674" type="CarDefault" departLane="random" />
	<vehicle id="v2803" depart="405.88" route="sr191" type="CarDefault" departLane="random" />
	<vehicle id="v2214" depart="406.55" route="r673" type="CarDefault" departLane="random" />
	<vehicle id="v55" depart="407.41" route="r675" type="CarDefault" departLane="random" />
	<vehicle id="v1038" depart="408.94" route="r674" type="CarDefault" departLane="random" />
	<vehicle id="v2215" depart="412.44" route="r673" type="CarDefault" departLane="random" />
	<vehicle id="v2804" depart="414.71" route="sr191" type="CarDefault" departLane="random" />
	<vehicle id="v56" depart="414.81" route="r675" type="CarDefault" departLane="random" />
	<vehicle id="v1039" depart="415.64" route="r674" type="CarDefault" departLane="random" />
	<vehicle id="v2216" depart="418.33" route="r673" type="CarDefault" departLane="random" />
	<vehicle id="v57" depart="422.22" route="r675" type="CarDefault" departLane="random" />
	<vehicle id="v1040" depart="422.35" route="r674" type="CarDefault" departLane="random" />
	<vehicle id="v2805" depart="423.53" route="sr191" type="CarDefault" departLane="random" />
	<vehicle id="v2217" depart="424.22" route="r673" type="CarDefault" departLane="random" />
	<vehicle id="v1041" depart="429.05" route="r674" type="CarDefault" departLane="random" />
	<vehicle id="v58" depart="429.63" route="r675" type="CarDefault" departLane="random" />
	<vehicle id="v2218" depart="430.11" route="r673" type="CarDefault" departLane="random" />
	<vehicle id="v2806" depart="432.35" route="sr191" type="CarDefault" departLane="random" />
	<vehicle id="v1042" depart="435.75" route="r674" type="CarDefault" departLane="random" />
	<vehicle id="v2219" depart="436.01" route="r673" type="CarDefault" departLane="random" />
	<vehicle id="v59" depart="437.04" route="r675" type="CarDefault" departLane="random" />
	<vehicle id="v2807" depart="441.18" route="sr191" type="CarDefault" departLane="random" />
	<vehicle id="v2220" depart="441.9" route="r673" type="CarDefault" departLane="random" />
	<vehicle id="v1043" depart="442.46" route="r674" type="CarDefault" departLane="random" />
	<vehicle id="v60" depart="444.44" route="r675" type="CarDefault" departLane="random" />
	<vehicle id="v2221" depart="447.79" route="r673" type="CarDefault" departLane="random" />
	<vehicle id="v1044" depart="449.16" route="r674" type="CarDefault" departLane="random" />
	<vehicle id="v2808" depart="450.0" route="sr191" type="CarDefault" departLane="random" />
	<vehicle id="v61" depart="451.85" route="r675" type="CarDefault" departLane="random" />
	<vehicle id="v2072" depart="453" route="r673" type="CarDefault" departLane="random" />
	<vehicle id="v2222" depart="453.68" route="r673" type="CarDefault" departLane="random" />
	<vehicle id="v1045" depart="455.87" route="r674" type="CarDefault" departLane="random" />
	<vehicle id="v2809" depart="458.82" route="sr191" type="CarDefault" departLane="random" />
	<vehicle id="v62" depart="459.26" route="r675" type="CarDefault" departLane="random" />
	<vehicle id="v2223" depart="459.57" route="r673" type="CarDefault" departLane="random" />
	<vehicle id="v1046" depart="462.57" route="r674" type="CarDefault" departLane="random" />
	<vehicle id="v2224" depart="465.47" route="r673" type="CarDefault" departLane="random" />
	<vehicle id="v63" depart="466.67" route="r675" type="CarDefault" departLane="random" />
	<vehicle id="v2810" depart="467.65" route="sr191" type="CarDefault" departLane="random" />
	<vehicle id="v1047" depart="469.27" route="r674" type="CarDefault" departLane="random" />
	<vehicle id="v2073" depart="470" route="r673" type="CarDefault" departLane="random" />
	<vehicle id="v2225" depart="471.36" route="r673" type="CarDefault" departLane="random" />
	<vehicle id="v64" depart="474.07" route="r675" type="CarDefault" departLane="random" />
	<vehicle id="v1048" depart="475.98" route="r674" type="CarDefault" departLane="random" />
	<vehicle id="v2811" depart="476.47" route="sr191" type="CarDefault" departLane="random" />
	<vehicle id="v2226" depart="477.25" route="r673" type="CarDefault" departLane="random" />
	<vehicle id="v65" depart="481.48" route="r675" type="CarDefault" departLane="random" />
	<vehicle id="v1049" depart="482.68" route="r674" type="CarDefault" departLane="random" />
	<vehicle id="v2227" depart="483.14" route="r673" type="CarDefault" departLane="random" />
	<vehicle id="v2812" depart="485.29" route="sr191" type="CarDefault" departLane="random" />
	<vehicle id="v66" depart="488.89" route="r675" type="CarDefault" departLane="random" />
	<vehicle id="v2228" depart="489.03" route="r673" type="CarDefault" departLane="random" />
	<vehicle id="v1050" depart="489.39" route="r674" type="CarDefault" departLane="random" />
	<vehicle id="v2813" depart="494.12" route="sr191" type="CarDefault" departLane="random" />
	<vehicle id="v2229" depart="494.93" route="r673" type="CarDefault" departLane="random" />
	<vehicle id="v2074" depart="496" route="r673" type="CarDefault" departLane="random" />
	<vehicle id="v1051" depart="496.09" route="r674" type="CarDefault" departLane="random" />
	<vehicle id="v67" depart="496.3" route="r675" type="CarDefault" departLane="random" />
	<vehicle id="v2230" depart="500.82" route="r673" type="CarDefault" departLane="random" />
	<vehicle id="v1052" depart="502.79" route="r674" type="CarDefault" departLane="random" />
	<vehicle id="v2814" depart="502.94" route="sr191" type="CarDefault" departLane="random" />
	<vehicle id="v68" depart="503.7" route="r675" type="CarDefault" departLane="random" />
	<vehicle id="v2231" depart="506.71" route="r673" type="CarDefault" departLane="random" />
	<vehicle id="v1053" depart="509.5" route="r674" type="CarDefault" departLane="random" />
	<vehicle id="v69" depart="511.11" route="r675" type="CarDefault" departLane="random" />
	<vehicle id="v2815" depart="511.76" route="sr191" type="CarDefault" departLane="random" />
	<vehicle id="v2232" depart="512.6" route="r673" type="CarDefault" departLane="random" />
	<vehicle id="v1054" depart="516.2" route="r674" type="CarDefault" departLane="random" />
	<vehicle id="v2233" depart="518.49" route="r673" type="CarDefault" departLane="random" />
	<vehicle id="v70" depart="518.52" route="r675" type="CarDefault" departLane="random" />
	<vehicle id="v2816" depart="520.59" route="sr191" type="CarDefault" departLane="random" />
	<vehicle id="v1055" depart="522.91" route="r674" type="CarDefault" departLane="random" />
	<vehicle id="v2234" depart="524.39" route="r673" type="CarDefault" departLane="random" />
	<vehicle id="v71" depart="525.93" route="r675" type="CarDefault" departLane="random" />
	<vehicle id="v2075" depart="526" route="r673" type="CarDefault" departLane="random" />
	<vehicle id="v2817" depart="529.41" route="sr191" type="CarDefault" departLane="random" />
	<vehicle id="v1056" depart="529.61" route="r674" type="CarDefault" departLane="random" />
	<vehicle id="v2235" depart="530.28" route="r673" type="CarDefault" departLane="random" />