<?xml version='1.0' encoding='utf-8'?>
<routes>
	<vType accel="3.0" decel="6.0" id="CarDefault" length="5.0" minGap="2.5" maxSpeed="50.0" sigma="0.5" />
	<route id="sr1177" edges="15 139 97 119 117 120 136 137 138 5 9 21 32 31 182 75 78 79" fromJunction="15" toJunction="73" />
	<route id="sr1178" edges="22 12 112 19 8 0 32 31 182 87 88 89 179 178" fromJunction="78" toJunction="19" />
	<route id="sr1179" edges="13 83 118 136 137 138 5 63 135 163 54 53" fromJunction="69" toJunction="81" />
	<route id="sr1180" edges="55 169 130 131 56 73 105 1 30 50 157 154 125 143 144" fromJunction="83" toJunction="70" />
	<vehicle id="v3666" depart="0.0" route="sr1177" type="CarDefault" departLane="random" />
	<vehicle id="v4539" depart="0.0" route="sr1178" type="CarDefault" departLane="random" />
	<vehicle id="v5337" depart="0.0" route="sr1179" type="CarDefault" departLane="random" />
	<vehicle id="v6416" depart="0.0" route="sr1180" type="CarDefault" departLane="random" />
	<vehicle id="v5338" depart="3.34" route="sr1179" type="CarDefault" departLane="random" />
	<vehicle id="v3667" depart="4.13" route="sr1177" type="CarDefault" departLane="random" />
	<vehicle id="v5339" depart="6.68" route="sr1179" type="CarDefault" departLane="random" />
	<vehicle id="v3668" depart="8.26" route="sr1177" type="CarDefault" departLane="random" />
	<vehicle id="v5246" depart="9" route="sr1179" type="CarDefault" departLane="random" />
	<vehicle id="v6417" depart="9.52" route="sr1180" type="CarDefault" departLane="random" />
	<vehicle id="v5340" depart="10.02" route="sr1179" type="CarDefault" departLane="random" />
	<vehicle id="v4540" depart="10.26" route="sr1178" type="CarDefault" departLane="random" />
	<vehicle id="v3669" depart="12.39" route="sr1177" type="CarDefault" departLane="random" />
	<vehicle id="v5341" depart="13.36" route="sr1179" type="CarDefault" departLane="random" />
	<vehicle id="v3670" depart="16.51" route="sr1177" type="CarDefault" departLane="random" />
	<vehicle id="v5342" depart="16.7" route="sr1179" type="CarDefault" departLane="random" />
	<vehicle id="v6418" depart="19.05" route="sr1180" type="CarDefault" departLane="random" />
	<vehicle id="v5343" depart="20.04" route="sr1179" type="CarDefault" departLane="random" />
	<vehicle id="v4541" depart="20.51" route="sr1178" type="CarDefault" departLane="random" />
	<vehicle id="v3671" depart="20.64" route="sr1177" type="CarDefault" departLane="random" />
	<vehicle id="v5344" depart="23.38" route="sr1179" type="CarDefault" departLane="random" />
	<vehicle id="v3672" depart="24.77" route="sr1177" type="CarDefault" departLane="random" />
	<vehicle id="v5345" depart="26.72" route="sr1179" type="CarDefault" departLane="random" />
	<vehicle id="v6419" depart="28.57" route="sr1180" type="CarDefault" departLane="random" />
	<vehicle id="v3673" depart="28.9" route="sr1177" type="CarDefault" departLane="random" />
	<vehicle id="v5346" depart="30.06" route="sr1179" type="CarDefault" departLane="random" />
	<vehicle id="v4542" depart="30.77" route="sr1178" type="CarDefault" departLane="random" />
	<vehicle id="v3674" depart="33.03" route="sr1177" type="CarDefault" departLane="random" />
	<vehicle id="v5347" depart="33.4" route="sr1179" type="CarDefault" departLane="random" />
	<vehicle id="v5348" depart="36.73" route="sr1179" type="CarDefault" departLane="random" />
	<vehicle id="v3675" depart="37.16" route="sr1177" type="CarDefault" departLane="random" />
	<vehicle id="v6420" depart="38.1" route="sr1180" type="CarDefault" departLane="random" />
	<vehicle id="v5349" depart="40.07" route="sr1179" type="CarDefault" departLane="random" />
	<vehicle id="v4543" depart="41.03" route="sr1178" type="CarDefault" departLane="random" />
	<vehicle id="v3676" depart="41.28" route="sr1177" type="CarDefault" departLane="random" />
	<vehicle id="v5350" depart="43.41" route="sr1179" type="CarDefault" departLane="random" />
	<vehicle id="v3677" depart="45.41" route="sr1177" type="CarDefault" departLane="random" />
	<vehicle id="v5351" depart="46.75" route="sr1179" type="CarDefault" departLane="random" />
	<vehicle id="v6421" depart="47.62" route="sr1180" type="CarDefault" departLane="random" />
	<vehicle id="v3678" depart="49.54" route="sr1177" type="CarDefault" departLane="random" />
	<vehicle id="v5352" depart="50.09" route="sr1179" type="CarDefault" departLane="random" />
	<vehicle id="v3576" depart="51" route="sr1177" type="CarDefault" departLane="random" />
	<vehicle id="v4544" depart="51.28" route="sr1178" type="CarDefault" departLane="random" />
	<vehicle id="v5353" depart="53.43" route="sr1179" type="CarDefault" departLane="random" />
	<vehicle id="v3679" depart="53.67" route="sr1177" type="CarDefault" departLane="random" />
	<vehicle id="v5354" depart="56.77" route="sr1179" type="CarDefault" departLane="random" />
	<vehicle id="v6422" depart="57.14" route="sr1180" type="CarDefault" departLane="random" />
	<vehicle id="v3680" depart="57.8" route="sr1177" type="CarDefault" departLane="random" />
	<vehicle id="v5355" depart="60.11" route="sr1179" type="CarDefault" departLane="random" />
	<vehicle id="v4545" depart="61.54" route="sr1178" type="CarDefault" departLane="random" />
	<vehicle id="v3681" depart="61.93" route="sr1177" type="CarDefault" departLane="random" />
	<vehicle id="v5356" depart="63.45" route="sr1179" type="CarDefault" departLane="random" />
	<vehicle id="v3682" depart="66.06" route="sr1177" type="CarDefault" departLane="random" />
	<vehicle id="v6423" depart="66.67" route="sr1180" type="CarDefault" departLane="random" />
	<vehicle id="v5357" depart="66.79" route="sr1179" type="CarDefault" departLane="random" />
	<vehicle id="v5247" depart="70" route="sr1179" type="CarDefault" departLane="random" />
	<vehicle id="v5358" depart="70.13" route="sr1179" type="CarDefault" departLane="random" />
	<vehicle id="v3683" depart="70.18" route="sr1177" type="CarDefault" departLane="random" />
	<vehicle id="v4546" depart="71.79" route="sr1178" type="CarDefault" departLane="random" />
	<vehicle id="v5359" depart="73.47" route="sr1179" type="CarDefault" departLane="random" />
	<vehicle id="v3684" depart="74.31" route="sr1177" type="CarDefault" departLane="random" />
	<vehicle id="v6424" depart="76.19" route="sr1180" type="CarDefault" departLane="random" />
	<vehicle id="v5360" depart="76.81" route="sr1179" type="CarDefault" departLane="random" />
	<vehicle id="v3685" depart="78.44" route="sr1177" type="CarDefault" departLane="random" />
	<vehicle id="v5361" depart="80.15" route="sr1179" type="CarDefault" departLane="random" />
	<vehicle id="v5248" depart="81" route="sr1179" type="CarDefault" departLane="random" />
	<vehicle id="v4547" depart="82.05" route="sr1178" type="CarDefault" departLane="random" />
	<vehicle id="v3686" depart="82.57" route="sr1177" type="CarDefault" departLane="random" />
	<vehicle id="v5362" depart="83.49" route="sr1179" type="CarDefault" departLane="random" />
	<vehicle id="v6425" depart="85.71" route="sr1180" type="CarDefault" departLane="random" />
	<vehicle id="v3687" depart="86.7" route="sr1177" type="CarDefault" departLane="random" />
	<vehicle id="v5363" depart="86.83" route="sr1179" type="CarDefault" departLane="random" />
	<vehicle id="v5364" depart="90.17" route="sr1179" type="CarDefault" departLane="random" />
	<vehicle id="v3688" depart="90.83" route="sr1177" type="CarDefault" departLane="random" />
	<vehicle id="v4548" depart="92.31" route="sr1178" type="CarDefault" departLane="random" />
	<vehicle id="v5365" depart="93.51" route="sr1179" type="CarDefault" departLane="random" />
	<vehicle id="v3689" depart="94.95" route="sr1177" type="CarDefault" departLane="random" />
	<vehicle id="v6426" depart="95.24" route="sr1180" type="CarDefault" departLane="random" />
	<vehicle id="v5366" depart="96.85" route="sr1179" type="CarDefault" departLane="random" />
	<vehicle id="v3690" depart="99.08" route="sr1177" type="CarDefault" departLane="random" />
	<vehicle id="v5367" depart="100.19" route="sr1179" type="CarDefault" departLane="random" />
	<vehicle id="v4549" depart="102.56" route="sr1178" type="CarDefault" departLane="random" />
	<vehicle id="v3577" depart="103" route="sr1177" type="CarDefault" departLane="random" />
	<vehicle id="v3691" depart="103.21" route="sr1177" type="CarDefault" departLane="random" />
	<vehicle id="v5368" depart="103.53" route="sr1179" type="CarDefault" departLane="random" />
	<vehicle id="v6427" depart="104.76" route="sr1180" type="CarDefault" departLane="random" />
	<vehicle id="v5369" depart="106.86" route="sr1179" type="CarDefault" departLane="random" />
	<vehicle id="v3692" depart="107.34" route="sr1177" type="CarDefault" departLane="random" />
	<vehicle id="v5370" depart="110.2" route="sr1179" type="CarDefault" departLane="random" />
	<vehicle id="v5249" depart="111" route="sr1179" type="CarDefault" departLane="random" />
	<vehicle id="v3693" depart="111.47" route="sr1177" type="CarDefault" departLane="random" />
	<vehicle id="v4550" depart="112.82" route="sr1178" type="CarDefault" departLane="random" />
	<vehicle id="v5371" depart="113.54" route="sr1179" type="CarDefault" departLane="random" />
	<vehicle id="v6428" depart="114.29" route="sr1180" type="CarDefault" departLane="random" />
	<vehicle id="v3694" depart="115.6" route="sr1177" type="CarDefault" departLane="random" />
	<vehicle id="v5372" depart="116.88" route="sr1179" type="CarDefault" departLane="random" />
	<vehicle id="v3695" depart="119.72" route="sr1177" type="CarDefault" departLane="random" />
	<vehicle id="v5373" depart="120.22" route="sr1179" type="CarDefault" departLane="random" />
	<vehicle id="v4551" depart="123.08" route="sr1178" type="CarDefault" departLane="random" />
	<vehicle id="v5374" depart="123.56" route="sr1179" type="CarDefault" departLane="random" />
	<vehicle id="v6429" depart="123.81" route="sr1180" type="CarDefault" departLane="random" />
	<vehicle id="v3696" depart="123.85" route="sr1177" type="CarDefault" departLane="random" />
	<vehicle id="v5375" depart="126.9" route="sr1179" type="CarDefault" departLane="random" />
	<vehicle id="v3697" depart="127.98" route="sr1177" type="CarDefault" departLane="random" />
	<vehicle id="v5376" depart="130.24" route="sr1179" type="CarDefault" departLane="random" />
	<vehicle id="v3698" depart="132.11" route="sr1177" type="CarDefault" departLane="random" />
	<vehicle id="v4552" depart="133.33" route="sr1178" type="CarDefault" departLane="random" />
	<vehicle id="v6430" depart="133.33" route="sr1180" type="CarDefault" departLane="random" />
	<vehicle id="v5377" depart="133.58" route="sr1179" type="CarDefault" departLane="random" />
	<vehicle id="v3699" depart="136.24" route="sr1177" type="CarDefault" departLane="random" />
	<vehicle id="v5378" depart="136.92" route="sr1179" type="CarDefault" departLane="random" />
	<vehicle id="v5379" depart="140.26" route="sr1179" type="CarDefault" departLane="random" />
	<vehicle id="v3700" depart="140.37" route="sr1177" type="CarDefault" departLane="random" />
	<vehicle id="v6431" depart="142.86" route="sr1180" type="CarDefault" departLane="random" />
	<vehicle id="v4553" depart="143.59" route="sr1178" type="CarDefault" departLane="random" />
	<vehicle id="v5380" depart="143.6" route="sr1179" type="CarDefault" departLane="random" />
	<vehicle id="v3701" depart="144.5" route="sr1177" type="CarDefault" departLane="random" />
	<vehicle id="v5381" depart="146.94" route="sr1179" type="CarDefault" departLane="random" />
	<vehicle id="v3702" depart="148.62" route="sr1177" type="CarDefault" departLane="random" />
	<vehicle id="v5382" depart="150.28" route="sr1179" type="CarDefault" departLane="random" />
	<vehicle id="v6432" depart="152.38" route="sr1180" type="CarDefault" departLane="random" />
	<vehicle id="v3703" depart="152.75" route="sr1177" type="CarDefault" departLane="random" />
	<vehicle id="v5383" depart="153.62" route="sr1179" type="CarDefault" departLane="random" />
	<vehicle id="v4554" depart="153.85" route="sr1178" type="CarDefault" departLane="random" />
	<vehicle id="v3704" depart="156.88" route="sr1177" type="CarDefault" departLane="random" />
	<vehicle id="v5384" depart="156.96" route="sr1179" type="CarDefault" departLane="random" />
	<vehicle id="v5385" depart="160.3" route="sr1179" type="CarDefault" departLane="random" />
	<vehicle id="v3705" depart="161.01" route="sr1177" type="CarDefault" departLane="random" />
	<vehicle id="v6433" depart="161.9" route="sr1180" type="CarDefault" departLane="random" />
	<vehicle id="v5386" depart="163.64" route="sr1179" type="CarDefault" departLane="random" />
	<vehicle id="v4555" depart="164.1" route="sr1178" type="CarDefault" departLane="random" />
	<vehicle id="v5250" depart="165" route="sr1179" type="CarDefault" departLane="random" />
	<vehicle id="v3706" depart="165.14" route="sr1177" type="CarDefault" departLane="random" />
	<vehicle id="v5387" depart="166.98" route="sr1179" type="CarDefault" departLane="random" />
	<vehicle id="v3707" depart="169.27" route="sr1177" type="CarDefault" departLane="random" />
	<vehicle id="v5388" depart="170.32" route="sr1179" type="CarDefault" departLane="random" />
	<vehicle id="v6434" depart="171.43" route="sr1180" type="CarDefault" departLane="random" />
	<vehicle id="v3708" depart="173.39" route="sr1177" type="CarDefault" departLane="random" />
	<vehicle id="v5389" depart="173.65" route="sr1179" type="CarDefault" departLane="random" />
	<vehicle id="v4556" depart="174.36" route="sr1178" type="CarDefault" departLane="random" />
	<vehicle id="v5390" depart="176.99" route="sr1179" type="CarDefault" departLane="random" />
	<vehicle id="v3709" depart="177.52" route="sr1177" type="CarDefault" departLane="random" />
	<vehicle id="v5391" depart="180.33" route="sr1179" type="CarDefault" departLane="random" />
	<vehicle id="v6435" depart="180.95" route="sr1180" type="CarDefault" departLane="random" />
	<vehicle id="v3710" depart="181.65" route="sr1177" type="CarDefault" departLane="random" />
	<vehicle id="v5392" depart="183.67" route="sr1179" type="CarDefault" departLane="random" />
	<vehicle id="v4557" depart="184.62" route="sr1178" type="CarDefault" departLane="random" />
	<vehicle id="v3711" depart="185.78" route="sr1177" type="CarDefault" departLane="random" />
	<vehicle id="v5393" depart="187.01" route="sr1179" type="CarDefault" departLane="random" />
	<vehicle id="v3712" depart="189.91" route="sr1177" type="CarDefault" departLane="random" />
	<vehicle id="v5394" depart="190.35" route="sr1179" type="CarDefault" departLane="random" />
	<vehicle id="v6436" depart="190.48" route="sr1180" type="CarDefault" departLane="random" />
	<vehicle id="v5395" depart="193.69" route="sr1179" type="CarDefault" departLane="random" />
	<vehicle id="v3713" depart="194.04" route="sr1177" type="CarDefault" departLane="random" />
	<vehicle id="v4558" depart="194.87" route="sr1178" type="CarDefault" departLane="random" />
	<vehicle id="v5396" depart="197.03" route="sr1179" type="CarDefault" departLane="random" />
	<vehicle id="v3714" depart="198.17" route="sr1177" type="CarDefault" departLane="random" />
	<vehicle id="v6437" depart="200.0" route="sr1180" type="CarDefault" departLane="random" />
	<vehicle id="v5397" depart="200.37" route="sr1179" type="CarDefault" departLane="random" />
	<vehicle id="v3715" depart="202.29" route="sr1177" type="CarDefault" departLane="random" />
	<vehicle id="v5398" depart="203.71" route="sr1179" type="CarDefault" departLane="random" />
	<vehicle id="v4559" depart="205.13" route="sr1178" type="CarDefault" departLane="random" />
	<vehicle id="v3716" depart="206.42" route="sr1177" type="CarDefault" departLane="random" />
	<vehicle id="v5399" depart="207.05" route="sr1179" type="CarDefault" departLane="random" />
	<vehicle id="v6438" depart="209.52" route="sr1180" type="CarDefault" departLane="random" />
	<vehicle id="v5400" depart="210.39" route="sr1179" type="CarDefault" departLane="random" />
	<vehicle id="v3717" depart="210.55" route="sr1177" type="CarDefault" departLane="random" />
	<vehicle id="v5401" depart="213.73" route="sr1179" type="CarDefault" departLane="random" />
	<vehicle id="v3718" depart="214.68" route="sr1177" type="CarDefault" departLane="random" />
	<vehicle id="v4560" depart="215.38" route="sr1178" type="CarDefault" departLane="random" />
	<vehicle id="v5402" depart="217.07" route="sr1179" type="CarDefault" departLane="random" />
	<vehicle id="v3578" depart="218" route="sr1177" type="CarDefault" departLane="random" />
	<vehicle id="v3719" depart="218.81" route="sr1177" type="CarDefault" departLane="random" />
	<vehicle id="v6439" depart="219.05" route="sr1180" type="CarDefault" departLane="random" />
	<vehicle id="v5403" depart="220.41" route="sr1179" type="CarDefault" departLane="random" />
	<vehicle id="v3720" depart="222.94" route="sr1177" type="CarDefault" departLane="random" />
	<vehicle id="v5404" depart="223.75" route="sr1179" type="CarDefault" departLane="random" />
	<vehicle id="v4561" depart="225.64" route="sr1178" type="CarDefault" departLane="random" />
	<vehicle id="v3721" depart="227.06" route="sr1177" type="CarDefault" departLane="random" />
	<vehicle id="v5405" depart="227.09" route="sr1179" type="CarDefault" departLane="random" />
	<vehicle id="v6440" depart="228.57" route="sr1180" type="CarDefault" departLane="random" />
	<vehicle id="v5406" depart="230.43" route="sr1179" type="CarDefault" departLane="random" />
	<vehicle id="v3722" depart="231.19" route="sr1177" type="CarDefault" departLane="random" />
	<vehicle id="v3579" depart="232" route="sr1177" type="CarDefault" departLane="random" />
	<vehicle id="v5407" depart="233.77" route="sr1179" type="CarDefault" departLane="random" />
	<vehicle id="v3723" depart="235.32" route="sr1177" type="CarDefault" departLane="random" />
	<vehicle id="v4562" depart="235.9" route="sr1178" type="CarDefault" departLane="random" />
	<vehicle id="v5408" depart="237.11" route="sr1179" type="CarDefault" departLane="random" />
	<vehicle id="v6441" depart="238.1" route="sr1180" type="CarDefault" departLane="random" />
	<vehicle id="v3724" depart="239.45" route="sr1177" type="CarDefault" departLane="random" />
	<vehicle id="v5409" depart="240.45" route="sr1179" type="CarDefault" departLane="random" />
	<vehicle id="v3725" depart="243.58" route="sr1177" type="CarDefault" departLane="random" />
	<vehicle id="v5410" depart="243.78" route="sr1179" type="CarDefault" departLane="random" />
	<vehicle id="v4563" depart="246.15" route="sr1178" type="CarDefault" departLane="random" />
	<vehicle id="v5411" depart="247.12" route="sr1179" type="CarDefault" departLane="random" />
	<vehicle id="v6442" depart="247.62" route="sr1180" type="CarDefault" departLane="random" />
	<vehicle id="v3726" depart="247.71" route="sr1177" type="CarDefault" departLane="random" />
	<vehicle id="v5412" depart="250.46" route="sr1179" type="CarDefault" departLane="random" />
	<vehicle id="v3727" depart="251.83" route="sr1177" type="CarDefault" departLane="random" />
	<vehicle id="v5413" depart="253.8" route="sr1179" type="CarDefault" departLane="random" />
	<vehicle id="v5251" depart="255" route="sr1179" type="CarDefault" departLane="random" />
	<vehicle id="v3728" depart="255.96" route="sr1177" type="CarDefault" departLane="random" />
	<vehicle id="v4564" depart="256.41" route="sr1178" type="CarDefault" departLane="random" />
	<vehicle id="v5414" depart="257.14" route="sr1179" type="CarDefault" departLane="random" />
	<vehicle id="v6443" depart="257.14" route="sr1180" type="CarDefault" departLane="random" />
	<vehicle id="v3729" depart="260.09" route="sr1177" type="CarDefault" departLane="random" />
	<vehicle id="v5415" depart="260.48" route="sr1179" type="CarDefault" departLane="random" />
	<vehicle id="v5416" depart="263.82" route="sr1179" type="CarDefault" departLane="random" />
	<vehicle id="v3730" depart="264.22" route="sr1177" type="CarDefault" departLane="random" />
	<vehicle id="v4565" depart="266.67" route="sr1178" type="CarDefault" departLane="random" />
	<vehicle id="v6444" depart="266.67" route="sr1180" type="CarDefault" departLane="random" />
	<vehicle id="v5417" depart="267.16" route="sr1179" type="CarDefault" departLane="random" />
	<vehicle id="v3731" depart="268.35" route="sr1177" type="CarDefault" departLane="random" />
	<vehicle id="v5418" depart="270.5" route="sr1179" type="CarDefault" departLane="random" />
	<vehicle id="v3732" depart="272.48" route="sr1177" type="CarDefault" departLane="random" />
	<vehicle id="v5419" depart="273.84" route="sr1179" type="CarDefault" departLane="random" />
	<vehicle id="v6445" depart="276.19" route="sr1180" type="CarDefault" departLane="random" />
	<vehicle id="v3733" depart="276.61" route="sr1177" type="CarDefault" departLane="random" />
	<vehicle id="v4566" depart="276.92" route="sr1178" type="CarDefault" departLane="random" />
	<vehicle id="v5252" depart="277" route="sr1179" type="CarDefault" departLane="random" />
	<vehicle id="v5420" depart="277.18" route="sr1179" type="CarDefault" departLane="random" />
	<vehicle id="v5421" depart="280.52" route="sr1179" type="CarDefault" departLane="random" />
	<vehicle id="v3734" depart="280.73" route="sr1177" type="CarDefault" departLane="random" />
	<vehicle id="v5422" depart="283.86" route="sr1179" type="CarDefault" departLane="random" />
	<vehicle id="v3735" depart="284.86" route="sr1177" type="CarDefault" departLane="random" />
	<vehicle id="v6446" depart="285.71" route="sr1180" type="CarDefault" departLane="random" />
	<vehicle id="v4567" depart="287.18" route="sr1178" type="CarDefault" departLane="random" />
	<vehicle id="v5423" depart="287.2" route="sr1179" type="CarDefault" departLane="random" />
	<vehicle id="v3736" depart="288.99" route="sr1177" type="CarDefault" departLane="random" />
	<vehicle id="v5424" depart="290.54" route="sr1179" type="CarDefault" departLane="random" />
	<vehicle id="v3737" depart="293.12" route="sr1177" type="CarDefault" departLane="random" />
	<vehicle id="v5425" depart="293.88" route="sr1179" type="CarDefault" departLane="random" />
	<vehicle id="v6447" depart="295.24" route="sr1180" type="CarDefault" departLane="random" />
	<vehicle id="v5426" depart="297.22" route="sr1179" type="CarDefault" departLane="random" />
	<vehicle id="v3738" depart="297.25" route="sr1177" type="CarDefault" departLane="random" />
	<vehicle id="v4568" depart="297.44" route="sr1178" type="CarDefault" departLane="random" />
	<vehicle id="v5427" depart="300.56" route="sr1179" type="CarDefault" departLane="random" />
	<vehicle id="v3739" depart="301.38" route="sr1177" type="CarDefault" departLane="random" />
	<vehicle id="v5428" depart="303.9" route="sr1179" type="CarDefault" departLane="random" />
	<vehicle id="v6448" depart="304.76" route="sr1180" type="CarDefault" departLane="random" />
	<vehicle id="v3740" depart="305.5" route="sr1177" type="CarDefault" departLane="random" />
	<vehicle id="v5429" depart="307.24" route="sr1179" type="CarDefault" departLane="random" />
	<vehicle id="v4569" depart="307.69" route="sr1178" type="CarDefault" departLane="random" />
	<vehicle id="v3580" depart="308" route="sr1177" type="CarDefault" departLane="random" />
	<vehicle id="v3741" depart="309.63" route="sr1177" type="CarDefault" departLane="random" />
	<vehicle id="v5430" depart="310.58" route="sr1179" type="CarDefault" departLane="random" />
	<vehicle id="v3742" depart="313.76" route="sr1177" type="CarDefault" departLane="random" />
	<vehicle id="v5431" depart="313.91" route="sr1179" type="CarDefault" departLane="random" />
	<vehicle id="v6449" depart="314.29" route="sr1180" type="CarDefault" departLane="random" />
	<vehicle id="v5432" depart="317.25" route="sr1179" type="CarDefault" departLane="random" />
	<vehicle id="v3743" depart="317.89" route="sr1177" type="CarDefault" departLane="random" />
	<vehicle id="v4570" depart="317.95" route="sr1178" type="CarDefault" departLane="random" />
	<vehicle id="v5433" depart="320.59" route="sr1179" type="CarDefault" departLane="random" />
	<vehicle id="v3744" depart="322.02" route="sr1177" type="CarDefault" departLane="random" />
	<vehicle id="v6450" depart="323.81" route="sr1180" type="CarDefault" departLane="random" />
	<vehicle id="v5434" depart="323.93" route="sr1179" type="CarDefault" departLane="random" />
	<vehicle id="v3745" depart="326.15" route="sr1177" type="CarDefault" departLane="random" />
	<vehicle id="v5435" depart="327.27" route="sr1179" type="CarDefault" departLane="random" />
	<vehicle id="v4571" depart="328.21" route="sr1178" type="CarDefault" departLane="random" />
	<vehicle id="v3746" depart="330.28" route="sr1177" type="CarDefault" departLane="random" />
	<vehicle id="v5436" depart="330.61" route="sr1179" type="CarDefault" departLane="random" />
	<vehicle id="v6451" depart="333.33" route="sr1180" type="CarDefault" departLane="random" />
	<vehicle id="v5437" depart="333.95" route="sr1179" type="CarDefault" departLane="random" />
	<vehicle id="v3581" depart="334" route="sr1177" type="CarDefault" departLane="random" />
	<vehicle id="v3747" depart="334.4" route="sr1177" type="CarDefault" departLane="random" />
	<vehicle id="v5438" depart="337.29" route="sr1179" type="CarDefault" departLane="random" />
	<vehicle id="v4572" depart="338.46" route="sr1178" type="CarDefault" departLane="random" />
	<vehicle id="v3748" depart="338.53" route="sr1177" type="CarDefault" departLane="random" />
	<vehicle id="v5439" depart="340.63" route="sr1179" type="CarDefault" departLane="random" />
	<vehicle id="v3749" depart="342.66" route="sr1177" type="CarDefault" departLane="random" />
	<vehicle id="v6452" depart="342.86" route="sr1180" type="CarDefault" departLane="random" />
	<vehicle id="v5440" depart="343.97" route="sr1179" type="CarDefault" departLane="random" />
	<vehicle id="v3750" depart="346.79" route="sr1177" type="CarDefault" departLane="random" />
	<vehicle id="v5441" depart="347.31" route="sr1179" type="CarDefault" departLane="random" />
	<vehicle id="v4573" depart="348.72" route="sr1178" type="CarDefault" departLane="random" />
	<vehicle id="v5442" depart="350.65" route="sr1179" type="CarDefault" departLane="random" />
	<vehicle id="v3751" depart="350.92" route="sr1177" type="CarDefault" departLane="random" />
	<vehicle id="v6453" depart="352.38" route="sr1180" type="CarDefault" departLane="random" />
	<vehicle id="v5443" depart="353.99" route="sr1179" type="CarDefault" departLane="random" />
	<vehicle id="v3752" depart="355.05" route="sr1177" type="CarDefault" departLane="random" />
	<vehicle id="v5444" depart="357.33" route="sr1179" type="CarDefault" departLane="random" />
	<vehicle id="v4574" depart="358.97" route="sr1178" type="CarDefault" departLane="random" />
	<vehicle id="v3582" depart="359" route="sr1177" type="CarDefault" departLane="random" />
	<vehicle id="v3753" depart="359.17" route="sr1177" type="CarDefault" departLane="random" />
	<vehicle id="v5445" depart="360.67" route="sr1179" type="CarDefault" departLane="random" />
	<vehicle id="v6454" depart="361.9" route="sr1180" type="CarDefault" departLane="random" />
	<vehicle id="v3754" depart="363.3" route="sr1177" type="CarDefault" departLane="random" />
	<vehicle id="v5446" depart="364.01" route="sr1179" type="CarDefault" departLane="random" />
	<vehicle id="v3583" depart="365" route="sr1177" type="CarDefault" departLane="random" />
	<vehicle id="v5253" depart="365" route="sr1179" type="CarDefault" departLane="random" />
	<vehicle id="v5447" depart="367.35" route="sr1179" type="CarDefault" departLane="random" />
	<vehicle id="v3755" depart="367.43" route="sr1177" type="CarDefault" departLane="random" />
	<vehicle id="v4575" depart="369.23" route="sr1178" type="CarDefault" departLane="random" />
	<vehicle id="v5448" depart="370.69" route="sr1179" type="CarDefault" departLane="random" />
	<vehicle id="v6455" depart="371.43" route="sr1180" type="CarDefault" departLane="random" />
	<vehicle id="v3756" depart="371.56" route="sr1177" type="CarDefault" departLane="random" />
	<vehicle id="v5449" depart="374.03" route="sr1179" type="CarDefault" departLane="random" />
	<vehicle id="v3757" depart="375.69" route="sr1177" type="CarDefault" departLane="random" />
	<vehicle id="v5450" depart="377.37" route="sr1179" type="CarDefault" departLane="random" />
	<vehicle id="v4576" depart="379.49" route="sr1178" type="CarDefault" departLane="random" />
	<vehicle id="v3758" depart="379.82" route="sr1177" type="CarDefault" departLane="random" />
	<vehicle id="v5451" depart="380.71" route="sr1179" type="CarDefault" departLane="random" />
	<vehicle id="v6456" depart="380.95" route="sr1180" type="CarDefault" departLane="random" />
	<vehicle id="v3584" depart="381" route="sr1177" type="CarDefault" departLane="random" />
	<vehicle id="v3759" depart="383.94" route="sr1177" type="CarDefault" departLane="random" />
	<vehicle id="v5452" depart="384.04" route="sr1179" type="CarDefault" departLane="random" />
	<vehicle id="v5453" depart="387.38" route="sr1179" type="CarDefault" departLane="random" />
	<vehicle id="v3760" depart="388.07" route="sr1177" type="CarDefault" departLane="random" />
	<vehicle id="v4577" depart="389.74" route="sr1178" type="CarDefault" departLane="random" />
	<vehicle id="v6457" depart="390.48" route="sr1180" type="CarDefault" departLane="random" />
	<vehicle id="v5454" depart="390.72" route="sr1179" type="CarDefault" departLane="random" />
	<vehicle id="v3761" depart="392.2" route="sr1177" type="CarDefault" departLane="random" />
	<vehicle id="v5455" depart="394.06" route="sr1179" type="CarDefault" departLane="random" />
	<vehicle id="v3762" depart="396.33" route="sr1177" type="CarDefault" departLane="random" />
	<vehicle id="v5456" depart="397.4" route="sr1179" type="CarDefault" departLane="random" />
	<vehicle id="v4578" depart="400.0" route="sr1178" type="CarDefault" departLane="random" />
	<vehicle id="v6458" depart="400.0" route="sr1180" type="CarDefault" departLane="random" />