<?xml version='1.0' encoding='utf-8'?>
<routes>
	<vType accel="3.0" decel="6.0" id="CarDefault" length="5.0" minGap="2.5" maxSpeed="50.0" sigma="0.5" />
	<route id="sr2168" edges="13 83 118 136 137 138 5 63 135 163 54 53" fromJunction="69" toJunction="81" />
	<route id="r2653" edges="15 139 97 119 117 120 25 11 52 51 21 32 31 182 75 78 79" fromJunction="15" toJunction="73" />
	<route id="sr2166" edges="15 139 97 119 117 120 136 137 138 5 9 21 32 31 182 75 78 79" fromJunction="15" toJunction="73" />
	<route id="r2652" edges="55 169 146 153 105 1 164 104 40 70 144" fromJunction="83" toJunction="70" />
	<route id="sr2169" edges="22 12 112 19 8 0 32 31 182 87 88 89 179 178" fromJunction="78" toJunction="19" />
	<route id="r2651" edges="13 83 118 136 137 138 5 44 73 105 54 53" fromJunction="69" toJunction="81" />
	<route id="sr2167" edges="55 169 130 131 56 73 105 1 30 50 157 154 125 143 144" fromJunction="83" toJunction="70" />
	<vehicle id="v8313" depart="0.0" route="r2653" type="CarDefault" departLane="random" />
	<vehicle id="v9477" depart="0.0" route="r2652" type="CarDefault" departLane="random" />
	<vehicle id="v10270" depart="0.0" route="r2651" type="CarDefault" departLane="random" />
	<vehicle id="v11058" depart="0.0" route="sr2169" type="CarDefault" departLane="random" />
	<vehicle id="v9290" depart="1" route="r2652" type="CarDefault" departLane="random" />
	<vehicle id="v9478" depart="4.55" route="r2652" type="CarDefault" departLane="random" />
	<vehicle id="v10978" depart="5" route="sr2169" type="CarDefault" departLane="random" />
	<vehicle id="v11059" depart="5.82" route="sr2169" type="CarDefault" departLane="random" />
	<vehicle id="v8314" depart="7.41" route="r2653" type="CarDefault" departLane="random" />
	<vehicle id="v9479" depart="9.09" route="r2652" type="CarDefault" departLane="random" />
	<vehicle id="v10271" depart="10.26" route="r2651" type="CarDefault" departLane="random" />
	<vehicle id="v11060" depart="11.63" route="sr2169" type="CarDefault" departLane="random" />
	<vehicle id="v9480" depart="13.64" route="r2652" type="CarDefault" departLane="random" />
	<vehicle id="v8315" depart="14.81" route="r2653" type="CarDefault" departLane="random" />
	<vehicle id="v11061" depart="17.45" route="sr2169" type="CarDefault" departLane="random" />
	<vehicle id="v9481" depart="18.18" route="r2652" type="CarDefault" departLane="random" />
	<vehicle id="v10272" depart="20.51" route="r2651" type="CarDefault" departLane="random" />
	<vehicle id="v8316" depart="22.22" route="r2653" type="CarDefault" departLane="random" />
	<vehicle id="v9482" depart="22.73" route="r2652" type="CarDefault" departLane="random" />
	<vehicle id="v11062" depart="23.26" route="sr2169" type="CarDefault" departLane="random" />
	<vehicle id="v9483" depart="27.27" route="r2652" type="CarDefault" departLane="random" />
	<vehicle id="v11063" depart="29.08" route="sr2169" type="CarDefault" departLane="random" />
	<vehicle id="v8317" depart="29.63" route="r2653" type="CarDefault" departLane="random" />
	<vehicle id="v10273" depart="30.77" route="r2651" type="CarDefault" departLane="random" />
	<vehicle id="v9291" depart="31" route="r2652" type="CarDefault" departLane="random" />
	<vehicle id="v9484" depart="31.82" route="r2652" type="CarDefault" departLane="random" />
	<vehicle id="v11064" depart="34.89" route="sr2169" type="CarDefault" departLane="random" />
	<vehicle id="v9485" depart="36.36" route="r2652" type="CarDefault" departLane="random" />
	<vehicle id="v8318" depart="37.04" route="r2653" type="CarDefault" departLane="random" />
	<vehicle id="v11065" depart="40.71" route="sr2169" type="CarDefault" departLane="random" />
	<vehicle id="v9486" depart="40.91" route="r2652" type="CarDefault" departLane="random" />
	<vehicle id="v10274" depart="41.03" route="r2651" type="CarDefault" departLane="random" />
	<vehicle id="v8319" depart="44.44" route="r2653" type="CarDefault" departLane="random" />
	<vehicle id="v9487" depart="45.45" route="r2652" type="CarDefault" departLane="random" />
	<vehicle id="v11066" depart="46.53" route="sr2169" type="CarDefault" departLane="random" />
	<vehicle id="v9488" depart="50.0" route="r2652" type="CarDefault" departLane="random" />
	<vehicle id="v9292" depart="51" route="r2652" type="CarDefault" departLane="random" />
	<vehicle id="v10275" depart="51.28" route="r2651" type="CarDefault" departLane="random" />
	<vehicle id="v8320" depart="51.85" route="r2653" type="CarDefault" departLane="random" />
	<vehicle id="v11067" depart="52.34" route="sr2169" type="CarDefault" departLane="random" />
	<vehicle id="v9489" depart="54.55" route="r2652" type="CarDefault" departLane="random" />
	<vehicle id="v11068" depart="58.16" route="sr2169" type="CarDefault" departLane="random" />
	<vehicle id="v9490" depart="59.09" route="r2652" type="CarDefault" departLane="random" />
	<vehicle id="v8321" depart="59.26" route="r2653" type="CarDefault" departLane="random" />
	<vehicle id="v10276" depart="61.54" route="r2651" type="CarDefault" departLane="random" />
	<vehicle id="v9491" depart="63.64" route="r2652" type="CarDefault" departLane="random" />
	<vehicle id="v11069" depart="63.97" route="sr2169" type="CarDefault" departLane="random" />
	<vehicle id="v8322" depart="66.67" route="r2653" type="CarDefault" departLane="random" />
	<vehicle id="v9492" depart="68.18" route="r2652" type="CarDefault" departLane="random" />
	<vehicle id="v11070" depart="69.79" route="sr2169" type="CarDefault" departLane="random" />
	<vehicle id="v10277" depart="71.79" route="r2651" type="CarDefault" departLane="random" />
	<vehicle id="v10979" depart="72" route="sr2169" type="CarDefault" departLane="random" />
	<vehicle id="v9493" depart="72.73" route="r2652" type="CarDefault" departLane="random" />
	<vehicle id="v8323" depart="74.07" route="r2653" type="CarDefault" departLane="random" />
	<vehicle id="v11071" depart="75.61" route="sr2169" type="CarDefault" departLane="random" />
	<vehicle id="v9293" depart="77" route="r2652" type="CarDefault" departLane="random" />
	<vehicle id="v9494" depart="77.27" route="r2652" type="CarDefault" departLane="random" />
	<vehicle id="v9294" depart="81" route="r2652" type="CarDefault" departLane="random" />
	<vehicle id="v9295" depart="81" route="r2652" type="CarDefault" departLane="random" />
	<vehicle id="v11072" depart="81.42" route="sr2169" type="CarDefault" departLane="random" />
	<vehicle id="v8324" depart="81.48" route="r2653" type="CarDefault" departLane="random" />
	<vehicle id="v9495" depart="81.82" route="r2652" type="CarDefault" departLane="random" />
	<vehicle id="v10278" depart="82.05" route="r2651" type="CarDefault" departLane="random" />
	<vehicle id="v9496" depart="86.36" route="r2652" type="CarDefault" departLane="random" />
	<vehicle id="v11073" depart="87.24" route="sr2169" type="CarDefault" departLane="random" />
	<vehicle id="v8325" depart="88.89" route="r2653" type="CarDefault" departLane="random" />
	<vehicle id="v9497" depart="90.91" route="r2652" type="CarDefault" departLane="random" />
	<vehicle id="v10279" depart="92.31" route="r2651" type="CarDefault" departLane="random" />
	<vehicle id="v11074" depart="93.05" route="sr2169" type="CarDefault" departLane="random" />
	<vehicle id="v9498" depart="95.45" route="r2652" type="CarDefault" departLane="random" />
	<vehicle id="v8326" depart="96.3" route="r2653" type="CarDefault" departLane="random" />
	<vehicle id="v11075" depart="98.87" route="sr2169" type="CarDefault" departLane="random" />
	<vehicle id="v9499" depart="100.0" route="r2652" type="CarDefault" departLane="random" />
	<vehicle id="v10280" depart="102.56" route="r2651" type="CarDefault" departLane="random" />
	<vehicle id="v8327" depart="103.7" route="r2653" type="CarDefault" departLane="random" />
	<vehicle id="v9297" depart="104" route="r2652" type="CarDefault" departLane="random" />
	<vehicle id="v9500" depart="104.55" route="r2652" type="CarDefault" departLane="random" />
	<vehicle id="v11076" depart="104.68" route="sr2169" type="CarDefault" departLane="random" />
	<vehicle id="v9501" depart="109.09" route="r2652" type="CarDefault" departLane="random" />
	<vehicle id="v9296" depart="110" route="r2652" type="CarDefault" departLane="random" />
	<vehicle id="v11077" depart="110.5" route="sr2169" type="CarDefault" departLane="random" />
	<vehicle id="v8328" depart="111.11" route="r2653" type="CarDefault" departLane="random" />
	<vehicle id="v10281" depart="112.82" route="r2651" type="CarDefault" departLane="random" />
	<vehicle id="v9502" depart="113.64" route="r2652" type="CarDefault" departLane="random" />
	<vehicle id="v10980" depart="116" route="sr2169" type="CarDefault" departLane="random" />
	<vehicle id="v11078" depart="116.32" route="sr2169" type="CarDefault" departLane="random" />
	<vehicle id="v9503" depart="118.18" route="r2652" type="CarDefault" departLane="random" />
	<vehicle id="v8329" depart="118.52" route="r2653" type="CarDefault" departLane="random" />
	<vehicle id="v10981" depart="122" route="sr2169" type="CarDefault" departLane="random" />
	<vehicle id="v11079" depart="122.13" route="sr2169" type="CarDefault" departLane="random" />
	<vehicle id="v9504" depart="122.73" route="r2652" type="CarDefault" departLane="random" />
	<vehicle id="v10282" depart="123.08" route="r2651" type="CarDefault" departLane="random" />
	<vehicle id="v8330" depart="125.93" route="r2653" type="CarDefault" departLane="random" />
	<vehicle id="v9505" depart="127.27" route="r2652" type="CarDefault" departLane="random" />
	<vehicle id="v11080" depart="127.95" route="sr2169" type="CarDefault" departLane="random" />
	<vehicle id="v9506" depart="131.82" route="r2652" type="CarDefault" departLane="random" />
	<vehicle id="v8331" depart="133.33" route="r2653" type="CarDefault" departLane="random" />
	<vehicle id="v10283" depart="133.33" route="r2651" type="CarDefault" departLane="random" />
	<vehicle id="v11081" depart="133.76" route="sr2169" type="CarDefault" departLane="random" />
	<vehicle id="v9507" depart="136.36" route="r2652" type="CarDefault" departLane="random" />
	<vehicle id="v11082" depart="139.58" route="sr2169" type="CarDefault" departLane="random" />
	<vehicle id="v10982" depart="140" route="sr2169" type="CarDefault" departLane="random" />
	<vehicle id="v8332" depart="140.74" route="r2653" type="CarDefault" departLane="random" />
	<vehicle id="v9508" depart="140.91" route="r2652" type="CarDefault" departLane="random" />
	<vehicle id="v10284" depart="143.59" route="r2651" type="CarDefault" departLane="random" />
	<vehicle id="v11083" depart="145.4" route="sr2169" type="CarDefault" departLane="random" />
	<vehicle id="v9509" depart="145.45" route="r2652" type="CarDefault" departLane="random" />
	<vehicle id="v8333" depart="148.15" route="r2653" type="CarDefault" departLane="random" />
	<vehicle id="v9510" depart="150.0" route="r2652" type="CarDefault" departLane="random" />
	<vehicle id="v11084" depart="151.21" route="sr2169" type="CarDefault" departLane="random" />
	<vehicle id="v10285" depart="153.85" route="r2651" type="CarDefault" departLane="random" />
	<vehicle id="v9511" depart="154.55" route="r2652" type="CarDefault" departLane="random" />
	<vehicle id="v8334" depart="155.56" route="r2653" type="CarDefault" departLane="random" />
	<vehicle id="v11085" depart="157.03" route="sr2169" type="CarDefault" departLane="random" />
	<vehicle id="v9512" depart="159.09" route="r2652" type="CarDefault" departLane="random" />
	<vehicle id="v10983" depart="162" route="sr2169" type="CarDefault" departLane="random" />
	<vehicle id="v11086" depart="162.84" route="sr2169" type="CarDefault" departLane="random" />
	<vehicle id="v8335" depart="162.96" route="r2653" type="CarDefault" departLane="random" />
	<vehicle id="v9513" depart="163.64" route="r2652" type="CarDefault" departLane="random" />
	<vehicle id="v10286" depart="164.1" route="r2651" type="CarDefault" departLane="random" />
	<vehicle id="v9514" depart="168.18" route="r2652" type="CarDefault" departLane="random" />
	<vehicle id="v11087" depart="168.66" route="sr2169" type="CarDefault" departLane="random" />
	<vehicle id="v8336" depart="170.37" route="r2653" type="CarDefault" departLane="random" />
	<vehicle id="v9298" depart="172" route="r2652" type="CarDefault" departLane="random" />
	<vehicle id="v9515" depart="172.73" route="r2652" type="CarDefault" departLane="random" />
	<vehicle id="v10287" depart="174.36" route="r2651" type="CarDefault" departLane="random" />
	<vehicle id="v11088" depart="174.47" route="sr2169" type="CarDefault" departLane="random" />
	<vehicle id="v9299" depart="175" route="r2652" type="CarDefault" departLane="random" />
	<vehicle id="v9516" depart="177.27" route="r2652" type="CarDefault" departLane="random" />
	<vehicle id="v8337" depart="177.78" route="r2653" type="CarDefault" departLane="random" />
	<vehicle id="v11089" depart="180.29" route="sr2169" type="CarDefault" departLane="random" />
	<vehicle id="v9517" depart="181.82" route="r2652" type="CarDefault" departLane="random" />
	<vehicle id="v10288" depart="184.62" route="r2651" type="CarDefault" departLane="random" />
	<vehicle id="v8338" depart="185.19" route="r2653" type="CarDefault" departLane="random" />
	<vehicle id="v11090" depart="186.11" route="sr2169" type="CarDefault" departLane="random" />
	<vehicle id="v9518" depart="186.36" route="r2652" type="CarDefault" departLane="random" />
	<vehicle id="v9519" depart="190.91" route="r2652" type="CarDefault" departLane="random" />
	<vehicle id="v11091" depart="191.92" route="sr2169" type="CarDefault" departLane="random" />
	<vehicle id="v8339" depart="192.59" route="r2653" type="CarDefault" departLane="random" />
	<vehicle id="v10289" depart="194.87" route="r2651" type="CarDefault" departLane="random" />
	<vehicle id="v9520" depart="195.45" route="r2652" type="CarDefault" departLane="random" />
	<vehicle id="v11092" depart="197.74" route="sr2169" type="CarDefault" departLane="random" />
	<vehicle id="v8340" depart="200.0" route="r2653" type="CarDefault" departLane="random" />
	<vehicle id="v9521" depart="200.0" route="r2652" type="CarDefault" departLane="random" />
	<vehicle id="v11093" depart="203.55" route="sr2169" type="CarDefault" departLane="random" />
	<vehicle id="v9522" depart="204.55" route="r2652" type="CarDefault" departLane="random" />
	<vehicle id="v10290" depart="205.13" route="r2651" type="CarDefault" departLane="random" />
	<vehicle id="v8341" depart="207.41" route="r2653" type="CarDefault" departLane="random" />
	<vehicle id="v9300" depart="208" route="r2652" type="CarDefault" departLane="random" />
	<vehicle id="v9523" depart="209.09" route="r2652" type="CarDefault" departLane="random" />
	<vehicle id="v11094" depart="209.37" route="sr2169" type="CarDefault" departLane="random" />
	<vehicle id="v9524" depart="213.64" route="r2652" type="CarDefault" departLane="random" />
	<vehicle id="v8342" depart="214.81" route="r2653" type="CarDefault" departLane="random" />
	<vehicle id="v11095" depart="215.19" route="sr2169" type="CarDefault" departLane="random" />
	<vehicle id="v10291" depart="215.38" route="r2651" type="CarDefault" departLane="random" />
	<vehicle id="v9525" depart="218.18" route="r2652" type="CarDefault" departLane="random" />
	<vehicle id="v11096" depart="221.0" route="sr2169" type="CarDefault" departLane="random" />
	<vehicle id="v8343" depart="222.22" route="r2653" type="CarDefault" departLane="random" />
	<vehicle id="v9526" depart="222.73" route="r2652" type="CarDefault" departLane="random" />
	<vehicle id="v10292" depart="225.64" route="r2651" type="CarDefault" departLane="random" />
	<vehicle id="v11097" depart="226.82" route="sr2169" type="CarDefault" departLane="random" />
	<vehicle id="v9527" depart="227.27" route="r2652" type="CarDefault" departLane="random" />
	<vehicle id="v8344" depart="229.63" route="r2653" type="CarDefault" departLane="random" />
	<vehicle id="v9528" depart="231.82" route="r2652" type="CarDefault" departLane="random" />
	<vehicle id="v11098" depart="232.63" route="sr2169" type="CarDefault" departLane="random" />
	<vehicle id="v10984" depart="235" route="sr2169" type="CarDefault" departLane="random" />
	<vehicle id="v10293" depart="235.9" route="r2651" type="CarDefault" departLane="random" />
	<vehicle id="v9529" depart="236.36" route="r2652" type="CarDefault" departLane="random" />
	<vehicle id="v8345" depart="237.04" route="r2653" type="CarDefault" departLane="random" />
	<vehicle id="v11099" depart="238.45" route="sr2169" type="CarDefault" departLane="random" />
	<vehicle id="v9530" depart="240.91" route="r2652" type="CarDefault" departLane="random" />
	<vehicle id="v11100" depart="244.26" route="sr2169" type="CarDefault" departLane="random" />
	<vehicle id="v8346" depart="244.44" route="r2653" type="CarDefault" departLane="random" />
	<vehicle id="v9531" depart="245.45" route="r2652" type="CarDefault" departLane="random" />
	<vehicle id="v10294" depart="246.15" route="r2651" type="CarDefault" departLane="random" />
	<vehicle id="v9532" depart="250.0" route="r2652" type="CarDefault" departLane="random" />
	<vehicle id="v11101" depart="250.08" route="sr2169" type="CarDefault" departLane="random" />
	<vehicle id="v8347" depart="251.85" route="r2653" type="CarDefault" departLane="random" />
	<vehicle id="v9533" depart="254.55" route="r2652" type="CarDefault" departLane="random" />
	<vehicle id="v11102" depart="255.9" route="sr2169" type="CarDefault" departLane="random" />
	<vehicle id="v10295" depart="256.41" route="r2651" type="CarDefault" departLane="random" />
	<vehicle id="v9534" depart="259.09" route="r2652" type="CarDefault" departLane="random" />
	<vehicle id="v8348" depart="259.26" route="r2653" type="CarDefault" departLane="random" />
	<vehicle id="v11103" depart="261.71" route="sr2169" type="CarDefault" departLane="random" />
	<vehicle id="v10985" depart="262" route="sr2169" type="CarDefault" departLane="random" />
	<vehicle id="v9535" depart="263.64" route="r2652" type="CarDefault" departLane="random" />
	<vehicle id="v8349" depart="266.67" route="r2653" type="CarDefault" departLane="random" />
	<vehicle id="v10296" depart="266.67" route="r2651" type="CarDefault" departLane="random" />
	<vehicle id="v11104" depart="267.53" route="sr2169" type="CarDefault" departLane="random" />
	<vehicle id="v9536" depart="268.18" route="r2652" type="CarDefault" departLane="random" />
	<vehicle id="v9537" depart="272.73" route="r2652" type="CarDefault" departLane="random" />
	<vehicle id="v11105" depart="273.34" route="sr2169" type="CarDefault" departLane="random" />
	<vehicle id="v8350" depart="274.07" route="r2653" type="CarDefault" departLane="random" />
	<vehicle id="v9301" depart="275" route="r2652" type="CarDefault" departLane="random" />
	<vehicle id="v10297" depart="276.92" route="r2651" type="CarDefault" departLane="random" />
	<vehicle id="v9538" depart="277.27" route="r2652" type="CarDefault" departLane="random" />
	<vehicle id="v11106" depart="279.16" route="sr2169" type="CarDefault" departLane="random" />
	<vehicle id="v8351" depart="281.48" route="r2653" type="CarDefault" departLane="random" />
	<vehicle id="v9539" depart="281.82" route="r2652" type="CarDefault" departLane="random" />
	<vehicle id="v9302" depart="282" route="r2652" type="CarDefault" departLane="random" />
	<vehicle id="v11107" depart="284.98" route="sr2169" type="CarDefault" departLane="random" />
	<vehicle id="v9540" depart="286.36" route="r2652" type="CarDefault" departLane="random" />
	<vehicle id="v10298" depart="287.18" route="r2651" type="CarDefault" departLane="random" />
	<vehicle id="v8352" depart="288.89" route="r2653" type="CarDefault" departLane="random" />
	<vehicle id="v11108" depart="290.79" route="sr2169" type="CarDefault" departLane="random" />
	<vehicle id="v9541" depart="290.91" route="r2652" type="CarDefault" departLane="random" />
	<vehicle id="v9542" depart="295.45" route="r2652" type="CarDefault" departLane="random" />
	<vehicle id="v8353" depart="296.3" route="r2653" type="CarDefault" departLane="random" />
	<vehicle id="v11109" depart="296.61" route="sr2169" type="CarDefault" departLane="random" />
	<vehicle id="v10986" depart="297" route="sr2169" type="CarDefault" departLane="random" />
	<vehicle id="v10299" depart="297.44" route="r2651" type="CarDefault" departLane="random" />
	<vehicle id="v9543" depart="300.0" route="r2652" type="CarDefault" departLane="random" />
	<vehicle id="v11110" depart="302.42" route="sr2169" type="CarDefault" departLane="random" />
	<vehicle id="v8354" depart="303.7" route="r2653" type="CarDefault" departLane="random" />
	<vehicle id="v9544" depart="304.55" route="r2652" type="CarDefault" departLane="random" />
	<vehicle id="v9303" depart="306" route="r2652" type="CarDefault" departLane="random" />
	<vehicle id="v10300" depart="307.69" route="r2651" type="CarDefault" departLane="random" />
	<vehicle id="v11111" depart="308.24" route="sr2169" type="CarDefault" departLane="random" />
	<vehicle id="v9545" depart="309.09" route="r2652" type="CarDefault" departLane="random" />
	<vehicle id="v8355" depart="311.11" route="r2653" type="CarDefault" departLane="random" />
	<vehicle id="v10987" depart="313" route="sr2169" type="CarDefault" departLane="random" />
	<vehicle id="v9546" depart="313.64" route="r2652" type="CarDefault" departLane="random" />
	<vehicle id="v11112" depart="314.05" route="sr2169" type="CarDefault" departLane="random" />
	<vehicle id="v10301" depart="317.95" route="r2651" type="CarDefault" departLane="random" />
	<vehicle id="v9547" depart="318.18" route="r2652" type="CarDefault" departLane="random" />
	<vehicle id="v8356" depart="318.52" route="r2653" type="CarDefault" departLane="random" />
	<vehicle id="v11113" depart="319.87" route="sr2169" type="CarDefault" departLane="random" />
	<vehicle id="v9548" depart="322.73" route="r2652" type="CarDefault" departLane="random" />
	<vehicle id="v11114" depart="325.69" route="sr2169" type="CarDefault" departLane="random" />
	<vehicle id="v8357" depart="325.93" route="r2653" type="CarDefault" departLane="random" />
	<vehicle id="v9549" depart="327.27" route="r2652" type="CarDefault" departLane="random" />
	<vehicle id="v10302" depart="328.21" route="r2651" type="CarDefault" departLane="random" />
	<vehicle id="v11115" depart="331.5" route="sr2169" type="CarDefault" departLane="random" />
	<vehicle id="v9550" depart="331.82" route="r2652" type="CarDefault" departLane="random" />
	<vehicle id="v8358" depart="333.33" route="r2653" type="CarDefault" departLane="random" />
	<vehicle id="v9551" depart="336.36" route="r2652" type="CarDefault" departLane="random" />
	<vehicle id="v11116" depart="337.32" route="sr2169" type="CarDefault" departLane="random" />
	<vehicle id="v10303" depart="338.46" route="r2651" type="CarDefault" departLane="random" />
	<vehicle id="v9304" depart="339" route="r2652" type="CarDefault" departLane="random" />
	<vehicle id="v8359" depart="340.74" route="r2653" type="CarDefault" departLane="random" />
	<vehicle id="v9552" depart="340.91" route="r2652" type="CarDefault" departLane="random" />
	<vehicle id="v11117" depart="343.13" route="sr2169" type="CarDefault" departLane="random" />
	<vehicle id="v9553" depart="345.45" route="r2652" type="CarDefault" departLane="random" />
	<vehicle id="v8360" depart="348.15" route="r2653" type="CarDefault" departLane="random" />
	<vehicle id="v10304" depart="348.72" route="r2651" type="CarDefault" departLane="random" />
	<vehicle id="v11118" depart="348.95" route="sr2169" type="CarDefault" departLane="random" />
	<vehicle id="v9554" depart="350.0" route="r2652" type="CarDefault" departLane="random" />
	<vehicle id="v10988" depart="350" route="sr2169" type="CarDefault" departLane="random" />
	<vehicle id="v9555" depart="354.55" route="r2652" type="CarDefault" departLane="random" />
	<vehicle id="v11119" depart="354.77" route="sr2169" type="CarDefault" departLane="random" />
	<vehicle id="v8361" depart="355.56" route="r2653" type="CarDefault" departLane="random" />
	<vehicle id="v10305" depart="358.97" route="r2651" type="CarDefault" departLane="random" />
	<vehicle id="v9305" depart="359" route="r2652" type="CarDefault" departLane="random" />
	<vehicle id="v9556" depart="359.09" route="r2652" type="CarDefault" departLane="random" />
	<vehicle id="v11120" depart="360.58" route="sr2169" type="CarDefault" departLane="random" />
	<vehicle id="v8362" depart="362.96" route="r2653" type="CarDefault" departLane="random" />
	<vehicle id="v9306" depart="363" route="r2652" type="CarDefault" departLane="random" />
	<vehicle id="v9307" depart="363" route="r2652" type="CarDefault" departLane="random" />
	<vehicle id="v9557" depart="363.64" route="r2652" type="CarDefault" departLane="random" />
	<vehicle id="v11121" depart="366.4" route="sr2169" type="CarDefault" departLane="random" />
	<vehicle id="v9558" depart="368.18" route="r2652" type="CarDefault" departLane="random" />
	<vehicle id="v10306" depart="369.23" route="r2651" type="CarDefault" departLane="random" />
	<vehicle id="v8363" depart="370.37" route="r2653" type="CarDefault" departLane="random" />
	<vehicle id="v11122" depart="372.21" route="sr2169" type="CarDefault" departLane="random" />
	<vehicle id="v9559" depart="372.73" route="r2652" type="CarDefault" departLane="random" />
	<vehicle id="v9560" depart="377.27" route="r2652" type="CarDefault" departLane="random" />
	<vehicle id="v8364" depart="377.78" route="r2653" type="CarDefault" departLane="random" />
	<vehicle id="v11123" depart="378.03" route="sr2169" type="CarDefault" departLane="random" />
	<vehicle id="v10307" depart="379.49" route="r2651" type="CarDefault" departLane="random" />
	<vehicle id="v9561" depart="381.82" route="r2652" type="CarDefault" departLane="random" />
	<vehicle id="v9308" depart="383" route="r2652" type="CarDefault" departLane="random" />
	<vehicle id="v11124" depart="383.84" route="sr2169" type="CarDefault" departLane="random" />
	<vehicle id="v8365" depart="385.19" route="r2653" type="CarDefault" departLane="random" />
	<vehicle id="v9562" depart="386.36" route="r2652" type="CarDefault" departLane="random" />
	<vehicle id="v11125" depart="389.66" route="sr2169" type="CarDefault" departLane="random" />
	<vehicle id="v10308" depart="389.74" route="r2651" type="CarDefault" departLane="random" />
	<vehicle id="v9563" depart="390.91" route="r2652" type="CarDefault" departLane="random" />
	<vehicle id="v8366" depart="392.59" route="r2653" type="CarDefault" departLane="random" />
	<vehicle id="v9309" depart="395" route="r2652" type="CarDefault" departLane="random" />
	<vehicle id="v9564" depart="395.45" route="r2652" type="CarDefault" departLane="random" />
	<vehicle id="v11126" depart="395.48" route="sr2169" type="CarDefault" departLane="random" />
	<vehicle id="v8367" depart="400.0" route="r2653" type="CarDefault" departLane="random" />
	<vehicle id="v9565" depart="400.0" route="r2652" type="CarDefault" departLane="random" />
	<vehicle id="v10309" depart="400.0" route="r2651" type="CarDefault" departLane="random" />
	<vehicle id="v11127" depart="401.29" route="sr2169" type="CarDefault" departLane="random" />
	<vehicle id="v9566" depart="404.55" route="r2652" type="CarDefault" departLane="random" />
	<vehicle id="v11128" depart="407.11" route="sr2169" type="CarDefault" departLane="random" />
	<vehicle id="v8368" depart="407.41" route="r2653" type="CarDefault" departLane="random" />
	<vehicle id="v9567" depart="409.09" route="r2652" type="CarDefault" departLane="random" />
	<vehicle id="v10310" depart="410.26" route="r2651" type="CarDefault" departLane="random" />
	<vehicle id="v11129" depart="412.92" route="sr2169" type="CarDefault" departLane="random" />
	<vehicle id="v9568" depart="413.64" route="r2652" type="CarDefault" departLane="random" />
	<vehicle id="v9310" depart="414" route="r2652" type="CarDefault" departLane="random" />
	<vehicle id="v8369" depart="414.81" route="r2653" type="CarDefault" departLane="random" />
	<vehicle id="v9569" depart="418.18" route="r2652" type="CarDefault" departLane="random" />
	<vehicle id="v11130" depart="418.74" route="sr2169" type="CarDefault" departLane="random" />
	<vehicle id="v10311" depart="420.51" route="r2651" type="CarDefault" departLane="random" />
	<vehicle id="v8370" depart="422.22" route="r2653" type="CarDefault" departLane="random" />
	<vehicle id="v9570" depart="422.73" route="r2652" type="CarDefault" departLane="random" />
	<vehicle id="v11131" depart="424.56" route="sr2169" type="CarDefault" departLane="random" />
	<vehicle id="v9311" depart="427" route="r2652" type="CarDefault" departLane="random" />
	<vehicle id="v9571" depart="427.27" route="r2652" type="CarDefault" departLane="random" />
	<vehicle id="v8371" depart="429.63" route="r2653" type="CarDefault" departLane="random" />
	<vehicle id="v11132" depart="430.37" route="sr2169" type="CarDefault" departLane="random" />
	<vehicle id="v10312" depart="430.77" route="r2651" type="CarDefault" departLane="random" />
	<vehicle id="v9572" depart="431.82" route="r2652" type="CarDefault" departLane="random" />
	<vehicle id="v11133" depart="436.19" route="sr2169" type="CarDefault" departLane="random" />
	<vehicle id="v9573" depart="436.36" route="r2652" type="CarDefault" departLane="random" />
	<vehicle id="v8372" depart="437.04" route="r2653" type="CarDefault" departLane="random" />
	<vehicle id="v9574" depart="440.91" route="r2652" type="CarDefault" departLane="random" />
	<vehicle id="v10313" depart="441.03" route="r2651" type="CarDefault" departLane="random" />
	<vehicle id="v11134" depart="442.0" route="sr2169" type="CarDefault" departLane="random" />
	<vehicle id="v8373" depart="444.44" route="r2653" type="CarDefault" departLane="random" />
	<vehicle id="v9575" depart="445.45" route="r2652" type="CarDefault" departLane="random" />
	<vehicle id="v11135" depart="447.82" route="sr2169" type="CarDefault" departLane="random" />