<?xml version='1.0' encoding='utf-8'?>
<routes>
	<vType accel="3.0" decel="6.0" id="CarDefault" length="5.0" minGap="2.5" maxSpeed="50.0" sigma="0.5" />
	<route id="sr1064" edges="488 975 976 743 744 745 741 742 430 210 12 11 341 627 628 967 968 957 958 1002 1003 1004 1005 1006 1007 884 885 346" fromJunction="357" toJunction="315" />
	<route id="sr1065" edges="288 287 739 415 233 886 774 502 892 893 503 13 229 972 479 480 922 712 487 711 254 386 390 389 388 822" fromJunction="241" toJunction="316" />
	<route id="sr1066" edges="794 919 920 923 924 915 916 750 751 964 213 212 211 411 410 8" fromJunction="292" toJunction="357" />
	<vehicle id="v0" depart="0.0" route="sr1064" type="CarDefault" departLane="random" />
	<vehicle id="v706" depart="0.0" route="sr1065" type="CarDefault" departLane="random" />
	<vehicle id="v1913" depart="0.0" route="sr1066" type="CarDefault" departLane="random" />
	<vehicle id="v707" depart="5.97" route="sr1065" type="CarDefault" departLane="random" />
	<vehicle id="v1914" depart="7.41" route="sr1066" type="CarDefault" departLane="random" />
	<vehicle id="v1" depart="10.26" route="sr1064" type="CarDefault" departLane="random" />
	<vehicle id="v708" depart="11.94" route="sr1065" type="CarDefault" departLane="random" />
	<vehicle id="v1915" depart="14.81" route="sr1066" type="CarDefault" departLane="random" />
	<vehicle id="v709" depart="17.91" route="sr1065" type="CarDefault" departLane="random" />
	<vehicle id="v2" depart="20.51" route="sr1064" type="CarDefault" departLane="random" />
	<vehicle id="v1916" depart="22.22" route="sr1066" type="CarDefault" departLane="random" />
	<vehicle id="v710" depart="23.88" route="sr1065" type="CarDefault" departLane="random" />
	<vehicle id="v1917" depart="29.63" route="sr1066" type="CarDefault" departLane="random" />
	<vehicle id="v711" depart="29.85" route="sr1065" type="CarDefault" departLane="random" />
	<vehicle id="v3" depart="30.77" route="sr1064" type="CarDefault" departLane="random" />
	<vehicle id="v712" depart="35.82" route="sr1065" type="CarDefault" departLane="random" />
	<vehicle id="v1918" depart="37.04" route="sr1066" type="CarDefault" departLane="random" />
	<vehicle id="v4" depart="41.03" route="sr1064" type="CarDefault" departLane="random" />
	<vehicle id="v713" depart="41.79" route="sr1065" type="CarDefault" departLane="random" />
	<vehicle id="v1919" depart="44.44" route="sr1066" type="CarDefault" departLane="random" />
	<vehicle id="v714" depart="47.76" route="sr1065" type="CarDefault" departLane="random" />
	<vehicle id="v5" depart="51.28" route="sr1064" type="CarDefault" departLane="random" />
	<vehicle id="v1920" depart="51.85" route="sr1066" type="CarDefault" departLane="random" />
	<vehicle id="v715" depart="53.73" route="sr1065" type="CarDefault" departLane="random" />
	<vehicle id="v1921" depart="59.26" route="sr1066" type="CarDefault" departLane="random" />
	<vehicle id="v716" depart="59.7" route="sr1065" type="CarDefault" departLane="random" />
	<vehicle id="v6" depart="61.54" route="sr1064" type="CarDefault" departLane="random" />
	<vehicle id="v717" depart="65.67" route="sr1065" type="CarDefault" departLane="random" />
	<vehicle id="v1922" depart="66.67" route="sr1066" type="CarDefault" departLane="random" />
	<vehicle id="v718" depart="71.64" route="sr1065" type="CarDefault" departLane="random" />
	<vehicle id="v7" depart="71.79" route="sr1064" type="CarDefault" departLane="random" />
	<vehicle id="v1923" depart="74.07" route="sr1066" type="CarDefault" departLane="random" />
	<vehicle id="v719" depart="77.61" route="sr1065" type="CarDefault" departLane="random" />
	<vehicle id="v1924" depart="81.48" route="sr1066" type="CarDefault" departLane="random" />
	<vehicle id="v8" depart="82.05" route="sr1064" type="CarDefault" departLane="random" />
	<vehicle id="v720" depart="83.58" route="sr1065" type="CarDefault" departLane="random" />
	<vehicle id="v1925" depart="88.89" route="sr1066" type="CarDefault" departLane="random" />
	<vehicle id="v721" depart="89.55" route="sr1065" type="CarDefault" departLane="random" />
	<vehicle id="v9" depart="92.31" route="sr1064" type="CarDefault" departLane="random" />
	<vehicle id="v722" depart="95.52" route="sr1065" type="CarDefault" departLane="random" />
	<vehicle id="v1926" depart="96.3" route="sr1066" type="CarDefault" departLane="random" />
	<vehicle id="v723" depart="101.49" route="sr1065" type="CarDefault" departLane="random" />
	<vehicle id="v10" depart="102.56" route="sr1064" type="CarDefault" departLane="random" />
	<vehicle id="v1927" depart="103.7" route="sr1066" type="CarDefault" departLane="random" />
	<vehicle id="v724" depart="107.46" route="sr1065" type="CarDefault" departLane="random" />
	<vehicle id="v1928" depart="111.11" route="sr1066" type="CarDefault" departLane="random" />
	<vehicle id="v11" depart="112.82" route="sr1064" type="CarDefault" departLane="random" />
	<vehicle id="v725" depart="113.43" route="sr1065" type="CarDefault" departLane="random" />
	<vehicle id="v1929" depart="118.52" route="sr1066" type="CarDefault" departLane="random" />
	<vehicle id="v726" depart="119.4" route="sr1065" type="CarDefault" departLane="random" />
	<vehicle id="v12" depart="123.08" route="sr1064" type="CarDefault" departLane="random" />
	<vehicle id="v727" depart="125.37" route="sr1065" type="CarDefault" departLane="random" />
	<vehicle id="v1930" depart="125.93" route="sr1066" type="CarDefault" departLane="random" />
	<vehicle id="v728" depart="131.34" route="sr1065" type="CarDefault" departLane="random" />
	<vehicle id="v13" depart="133.33" route="sr1064" type="CarDefault" departLane="random" />
	<vehicle id="v1931" depart="133.33" route="sr1066" type="CarDefault" departLane="random" />
	<vehicle id="v729" depart="137.31" route="sr1065" type="CarDefault" departLane="random" />
	<vehicle id="v1932" depart="140.74" route="sr1066" type="CarDefault" departLane="random" />
	<vehicle id="v730" depart="143.28" route="sr1065" type="CarDefault" departLane="random" />
	<vehicle id="v14" depart="143.59" route="sr1064" type="CarDefault" departLane="random" />
	<vehicle id="v1933" depart="148.15" route="sr1066" type="CarDefault" departLane="random" />
	<vehicle id="v731" depart="149.25" route="sr1065" type="CarDefault" departLane="random" />
	<vehicle id="v15" depart="153.85" route="sr1064" type="CarDefault" departLane="random" />
	<vehicle id="v732" depart="155.22" route="sr1065" type="CarDefault" departLane="random" />
	<vehicle id="v1934" depart="155.56" route="sr1066" type="CarDefault" departLane="random" />
	<vehicle id="v733" depart="161.19" route="sr1065" type="CarDefault" departLane="random" />
	<vehicle id="v1935" depart="162.96" route="sr1066" type="CarDefault" departLane="random" />
	<vehicle id="v16" depart="164.1" route="sr1064" type="CarDefault" departLane="random" />
	<vehicle id="v734" depart="167.16" route="sr1065" type="CarDefault" departLane="random" />
	<vehicle id="v1936" depart="170.37" route="sr1066" type="CarDefault" departLane="random" />
	<vehicle id="v735" depart="173.13" route="sr1065" type="CarDefault" departLane="random" />
	<vehicle id="v17" depart="174.36" route="sr1064" type="CarDefault" departLane="random" />
	<vehicle id="v1937" depart="177.78" route="sr1066" type="CarDefault" departLane="random" />
	<vehicle id="v736" depart="179.1" route="sr1065" type="CarDefault" departLane="random" />
	<vehicle id="v18" depart="184.62" route="sr1064" type="CarDefault" departLane="random" />
	<vehicle id="v737" depart="185.07" route="sr1065" type="CarDefault" departLane="random" />
	<vehicle id="v1938" depart="185.19" route="sr1066" type="CarDefault" departLane="random" />
	<vehicle id="v738" depart="191.04" route="sr1065" type="CarDefault" departLane="random" />
	<vehicle id="v1939" depart="192.59" route="sr1066" type="CarDefault" departLane="random" />
	<vehicle id="v19" depart="194.87" route="sr1064" type="CarDefault" departLane="random" />
	<vehicle id="v739" depart="197.01" route="sr1065" type="CarDefault" departLane="random" />
	<vehicle id="v1940" depart="200.0" route="sr1066" type="CarDefault" departLane="random" />
	<vehicle id="v740" depart="202.99" route="sr1065" type="CarDefault" departLane="random" />
	<vehicle id="v20" depart="205.13" route="sr1064" type="CarDefault" departLane="random" />
	<vehicle id="v1941" depart="207.41" route="sr1066" type="CarDefault" departLane="random" />
	<vehicle id="v741" depart="208.96" route="sr1065" type="CarDefault" departLane="random" />
	<vehicle id="v1942" depart="214.81" route="sr1066" type="CarDefault" departLane="random" />
	<vehicle id="v742" depart="214.93" route="sr1065" type="CarDefault" departLane="random" />
	<vehicle id="v21" depart="215.38" route="sr1064" type="CarDefault" departLane="random" />
	<vehicle id="v743" depart="220.9" route="sr1065" type="CarDefault" departLane="random" />
	<vehicle id="v1943" depart="222.22" route="sr1066" type="CarDefault" departLane="random" />
	<vehicle id="v22" depart="225.64" route="sr1064" type="CarDefault" departLane="random" />
	<vehicle id="v744" depart="226.87" route="sr1065" type="CarDefault" departLane="random" />
	<vehicle id="v1944" depart="229.63" route="sr1066" type="CarDefault" departLane="random" />
	<vehicle id="v745" depart="232.84" route="sr1065" type="CarDefault" departLane="random" />
	<vehicle id="v23" depart="235.9" route="sr1064" type="CarDefault" departLane="random" />
	<vehicle id="v1945" depart="237.04" route="sr1066" type="CarDefault" departLane="random" />
	<vehicle id="v746" depart="238.81" route="sr1065" type="CarDefault" departLane="random" />
	<vehicle id="v1946" depart="244.44" route="sr1066" type="CarDefault" departLane="random" />
	<vehicle id="v747" depart="244.78" route="sr1065" type="CarDefault" departLane="random" />
	<vehicle id="v24" depart="246.15" route="sr1064" type="CarDefault" departLane="random" />
	<vehicle id="v748" depart="250.75" route="sr1065" type="CarDefault" departLane="random" />
	<vehicle id="v1947" depart="251.85" route="sr1066" type="CarDefault" departLane="random" />
	<vehicle id="v25" depart="256.41" route="sr1064" type="CarDefault" departLane="random" />
	<vehicle id="v749" depart="256.72" route="sr1065" type="CarDefault" departLane="random" />
	<vehicle id="v1948" depart="259.26" route="sr1066" type="CarDefault" departLane="random" />
	<vehicle id="v750" depart="262.69" route="sr1065" type="CarDefault" departLane="random" />
	<vehicle id="v26" depart="266.67" route="sr1064" type="CarDefault" departLane="random" />
	<vehicle id="v1949" depart="266.67" route="sr1066" type="CarDefault" departLane="random" />
	<vehicle id="v751" depart="268.66" route="sr1065" type="CarDefault" departLane="random" />
	<vehicle id="v1950" depart="274.07" route="sr1066" type="CarDefault" departLane="random" />
	<vehicle id="v752" depart="274.63" route="sr1065" type="CarDefault" departLane="random" />
	<vehicle id="v27" depart="276.92" route="sr1064" type="CarDefault" departLane="random" />
	<vehicle id="v753" depart="280.6" route="sr1065" type="CarDefault" departLane="random" />
	<vehicle id="v1951" depart="281.48" route="sr1066" type="CarDefault" departLane="random" />
	<vehicle id="v754" depart="286.57" route="sr1065" type="CarDefault" departLane="random" />
	<vehicle id="v28" depart="287.18" route="sr1064" type="CarDefault" departLane="random" />
	<vehicle id="v1952" depart="288.89" route="sr1066" type="CarDefault" departLane="random" />
	<vehicle id="v755" depart="292.54" route="sr1065" type="CarDefault" departLane="random" />
	<vehicle id="v1953" depart="296.3" route="sr1066" type="CarDefault" departLane="random" />
	<vehicle id="v29" depart="297.44" route="sr1064" type="CarDefault" departLane="random" />
	<vehicle id="v756" depart="298.51" route="sr1065" type="CarDefault" departLane="random" />
	<vehicle id="v1954" depart="303.7" route="sr1066" type="CarDefault" departLane="random" />
	<vehicle id="v757" depart="304.48" route="sr1065" type="CarDefault" departLane="random" />
	<vehicle id="v30" depart="307.69" route="sr1064" type="CarDefault" departLane="random" />
	<vehicle id="v758" depart="310.45" route="sr1065" type="CarDefault" departLane="random" />
	<vehicle id="v1955" depart="311.11" route="sr1066" type="CarDefault" departLane="random" />
	<vehicle id="v759" depart="316.42" route="sr1065" type="CarDefault" departLane="random" />
	<vehicle id="v31" depart="317.95" route="sr1064" type="CarDefault" departLane="random" />
	<vehicle id="v1956" depart="318.52" route="sr1066" type="CarDefault" departLane="random" />
	<vehicle id="v760" depart="322.39" route="sr1065" type="CarDefault" departLane="random" />
	<vehicle id="v1957" depart="325.93" route="sr1066" type="CarDefault" departLane="random" />
	<vehicle id="v32" depart="328.21" route="sr1064" type="CarDefault" departLane="random" />
	<vehicle id="v761" depart="328.36" route="sr1065" type="CarDefault" departLane="random" />
	<vehicle id="v1958" depart="333.33" route="sr1066" type="CarDefault" departLane="random" />
	<vehicle id="v762" depart="334.33" route="sr1065" type="CarDefault" departLane="random" />
	<vehicle id="v33" depart="338.46" route="sr1064" type="CarDefault" departLane="random" />
	<vehicle id="v763" depart="340.3" route="sr1065" type="CarDefault" departLane="random" />
	<vehicle id="v1959" depart="340.74" route="sr1066" type="CarDefault" departLane="random" />
	<vehicle id="v764" depart="346.27" route="sr1065" type="CarDefault" departLane="random" />
	<vehicle id="v1960" depart="348.15" route="sr1066" type="CarDefault" departLane="random" />
	<vehicle id="v34" depart="348.72" route="sr1064" type="CarDefault" departLane="random" />
	<vehicle id="v765" depart="352.24" route="sr1065" type="CarDefault" departLane="random" />
	<vehicle id="v1961" depart="355.56" route="sr1066" type="CarDefault" departLane="random" />
	<vehicle id="v766" depart="358.21" route="sr1065" type="CarDefault" departLane="random" />
	<vehicle id="v35" depart="358.97" route="sr1064" type="CarDefault" departLane="random" />
	<vehicle id="v1962" depart="362.96" route="sr1066" type="CarDefault" departLane="random" />
	<vehicle id="v767" depart="364.18" route="sr1065" type="CarDefault" departLane="random" />
	<vehicle id="v36" depart="369.23" route="sr1064" type="CarDefault" departLane="random" />
	<vehicle id="v768" depart="370.15" route="sr1065" type="CarDefault" departLane="random" />
	<vehicle id="v1963" depart="370.37" route="sr1066" type="CarDefault" departLane="random" />
	<vehicle id="v769" depart="376.12" route="sr1065" type="CarDefault" departLane="random" />
	<vehicle id="v1964" depart="377.78" route="sr1066" type="CarDefault" departLane="random" />
	<vehicle id="v37" depart="379.49" route="sr1064" type="CarDefault" departLane="random" />
	<vehicle id="v770" depart="382.09" route="sr1065" type="CarDefault" departLane="random" />
	<vehicle id="v1965" depart="385.19" route="sr1066" type="CarDefault" departLane="random" />
	<vehicle id="v771" depart="388.06" route="sr1065" type="CarDefault" departLane="random" />
	<vehicle id="v38" depart="389.74" route="sr1064" type="CarDefault" departLane="random" />
	<vehicle id="v1966" depart="392.59" route="sr1066" type="CarDefault" departLane="random" />
	<vehicle id="v772" depart="394.03" route="sr1065" type="CarDefault" departLane="random" />
	<vehicle id="v39" depart="400.0" route="sr1064" type="CarDefault" departLane="random" />
	<vehicle id="v773" depart="400.0" route="sr1065" type="CarDefault" departLane="random" />
	<vehicle id="v1967" depart="400.0" route="sr1066" type="CarDefault" departLane="random" />
	<vehicle id="v774" depart="405.97" route="sr1065" type="CarDefault" departLane="random" />
	<vehicle id="v1968" depart="407.41" route="sr1066" type="CarDefault" departLane="random" />
	<vehicle id="v40" depart="410.26" route="sr1064" type="CarDefault" departLane="random" />
	<vehicle id="v775" depart="411.94" route="sr1065" type="CarDefault" departLane="random" />
	<vehicle id="v1969" depart="414.81" route="sr1066" type="CarDefault" departLane="random" />
	<vehicle id="v776" depart="417.91" route="sr1065" type="CarDefault" departLane="random" />
	<vehicle id="v41" depart="420.51" route="sr1064" type="CarDefault" departLane="random" />
	<vehicle id="v1970" depart="422.22" route="sr1066" type="CarDefault" departLane="random" />
	<vehicle id="v777" depart="423.88" route="sr1065" type="CarDefault" departLane="random" />
	<vehicle id="v1971" depart="429.63" route="sr1066" type="CarDefault" departLane="random" />
	<vehicle id="v778" depart="429.85" route="sr1065" type="CarDefault" departLane="random" />
	<vehicle id="v42" depart="430.77" route="sr1064" type="CarDefault" departLane="random" />
	<vehicle id="v779" depart="435.82" route="sr1065" type="CarDefault" departLane="random" />
	<vehicle id="v1972" depart="437.04" route="sr1066" type="CarDefault" departLane="random" />
	<vehicle id="v43" depart="441.03" route="sr1064" type="CarDefault" departLane="random" />
	<vehicle id="v780" depart="441.79" route="sr1065" type="CarDefault" departLane="random" />
	<vehicle id="v1973" depart="444.44" route="sr1066" type="CarDefault" departLane="random" />
	<vehicle id="v781" depart="447.76" route="sr1065" type="CarDefault" departLane="random" />
	<vehicle id="v44" depart="451.28" route="sr1064" type="CarDefault" departLane="random" />
	<vehicle id="v1974" depart="451.85" route="sr1066" type="CarDefault" departLane="random" />
	<vehicle id="v782" depart="453.73" route="sr1065" type="CarDefault" departLane="random" />
	<vehicle id="v1975" depart="459.26" route="sr1066" type="CarDefault" departLane="random" />
	<vehicle id="v783" depart="459.7" route="sr1065" type="CarDefault" departLane="random" />
	<vehicle id="v45" depart="461.54" route="sr1064" type="CarDefault" departLane="random" />
	<vehicle id="v784" depart="465.67" route="sr1065" type="CarDefault" departLane="random" />
	<vehicle id="v1976" depart="466.67" route="sr1066" type="CarDefault" departLane="random" />
	<vehicle id="v785" depart="471.64" route="sr1065" type="CarDefault" departLane="random" />
	<vehicle id="v46" depart="471.79" route="sr1064" type="CarDefault" departLane="random" />
	<vehicle id="v1977" depart="474.07" route="sr1066" type="CarDefault" departLane="random" />
	<vehicle id="v786" depart="477.61" route="sr1065" type="CarDefault" departLane="random" />
	<vehicle id="v1978" depart="481.48" route="sr1066" type="CarDefault" departLane="random" />
	<vehicle id="v47" depart="482.05" route="sr1064" type="CarDefault" departLane="random" />
	<vehicle id="v787" depart="483.58" route="sr1065" type="CarDefault" departLane="random" />
	<vehicle id="v1979" depart="488.89" route="sr1066" type="CarDefault" departLane="random" />
	<vehicle id="v788" depart="489.55" route="sr1065" type="CarDefault" departLane="random" />
	<vehicle id="v48" depart="492.31" route="sr1064" type="CarDefault" departLane="random" />
	<vehicle id="v789" depart="495.52" route="sr1065" type="CarDefault" departLane="random" />
	<vehicle id="v1980" depart="496.3" route="sr1066" type="CarDefault" departLane="random" />
	<vehicle id="v790" depart="501.49" route="sr1065" type="CarDefault" departLane="random" />
	<vehicle id="v49" depart="502.56" route="sr1064" type="CarDefault" departLane="random" />
	<vehicle id="v1981" depart="503.7" route="sr1066" type="CarDefault" departLane="random" />
	<vehicle id="v791" depart="507.46" route="sr1065" type="CarDefault" departLane="random" />
	<vehicle id="v1982" depart="511.11" route="sr1066" type="CarDefault" departLane="random" />
	<vehicle id="v50" depart="512.82" route="sr1064" type="CarDefault" departLane="random" />
	<vehicle id="v792" depart="513.43" route="sr1065" type="CarDefault" departLane="random" />
	<vehicle id="v1983" depart="518.52" route="sr1066" type="CarDefault" departLane="random" />
	<vehicle id="v793" depart="519.4" route="sr1065" type="CarDefault" departLane="random" />
	<vehicle id="v51" depart="523.08" route="sr1064" type="CarDefault" departLane="random" />
	<vehicle id="v794" depart="525.37" route="sr1065" type="CarDefault" departLane="random" />
	<vehicle id="v1984" depart="525.93" route="sr1066" type="CarDefault" departLane="random" />
	<vehicle id="v795" depart="531.34" route="sr1065" type="CarDefault" departLane="random" />
	<vehicle id="v52" depart="533.33" route="sr1064" type="CarDefault" departLane="random" />
	<vehicle id="v1985" depart="533.33" route="sr1066" type="CarDefault" departLane="random" />
	<vehicle id="v796" depart="537.31" route="sr1065" type="CarDefault" departLane="random" />
	<vehicle id="v1986" depart="540.74" route="sr1066" type="CarDefault" departLane="random" />
	<vehicle id="v797" depart="543.28" route="sr1065" type="CarDefault" departLane="random" />
	<vehicle id="v53" depart="543.59" route="sr1064" type="CarDefault" departLane="random" />
	<vehicle id="v1987" depart="548.15" route="sr1066" type="CarDefault" departLane="random" />
	<vehicle id="v798" depart="549.25" route="sr1065" type="CarDefault" departLane="random" />
	<vehicle id="v54" depart="553.85" route="sr1064" type="CarDefault" departLane="random" />
	<vehicle id="v799" depart="555.22" route="sr1065" type="CarDefault" departLane="random" />
	<vehicle id="v1988" depart="555.56" route="sr1066" type="CarDefault" departLane="random" />
	<vehicle id="v800" depart="561.19" route="sr1065" type="CarDefault" departLane="random" />
	<vehicle id="v1989" depart="562.96" route="sr1066" type="CarDefault" departLane="random" />
	<vehicle id="v55" depart="564.1" route="sr1064" type="CarDefault" departLane="random" />
	<vehicle id="v801" depart="567.16" route="sr1065" type="CarDefault" departLane="random" />
	<vehicle id="v1990" depart="570.37" route="sr1066" type="CarDefault" departLane="random" />
	<vehicle id="v802" depart="573.13" route="sr1065" type="CarDefault" departLane="random" />
	<vehicle id="v56" depart="574.36" route="sr1064" type="CarDefault" departLane="random" />
	<vehicle id="v1991" depart="577.78" route="sr1066" type="CarDefault" departLane="random" />
	<vehicle id="v803" depart="579.1" route="sr1065" type="CarDefault" departLane="random" />
	<vehicle id="v57" depart="584.62" route="sr1064" type="CarDefault" departLane="random" />
	<vehicle id="v804" depart="585.07" route="sr1065" type="CarDefault" departLane="random" />
	<vehicle id="v1992" depart="585.19" route="sr1066" type="CarDefault" departLane="random" />
	<vehicle id="v805" depart="591.04" route="sr1065" type="CarDefault" departLane="random" />
	<vehicle id="v1993" depart="592.59" route="sr1066" type="CarDefault" departLane="random" />
	<vehicle id="v58" depart="594.87" route="sr1064" type="CarDefault" departLane="random" />
	<vehicle id="v806" depart="597.01" route="sr1065" type="CarDefault" departLane="random" />
	<vehicle id="v1994" depart="600.0" route="sr1066" type="CarDefault" departLane="random" />
	<vehicle id="v2102" depart="600" route="sr1066" type="CarDefault" departLane="random" />
	<vehicle id="v807" depart="602.99" route="sr1065" type="CarDefault" departLane="random" />
	<vehicle id="v59" depart="605.13" route="sr1064" type="CarDefault" departLane="random" />
	<vehicle id="v1995" depart="607.41" route="sr1066" type="CarDefault" departLane="random" />
	<vehicle id="v808" depart="608.96" route="sr1065" type="CarDefault" departLane="random" />
	<vehicle id="v2076" depart="613" route="sr1066" type="CarDefault" departLane="random" />
	<vehicle id="v1996" depart="614.81" route="sr1066" type="CarDefault" departLane="random" />
	<vehicle id="v809" depart="614.93" route="sr1065" type="CarDefault" departLane="random" />
	<vehicle id="v60" depart="615.38" route="sr1064" type="CarDefault" departLane="random" />
	<vehicle id="v810" depart="620.9" route="sr1065" type="CarDefault" departLane="random" />
	<vehicle id="v1997" depart="622.22" route="sr1066" type="CarDefault" departLane="random" />
	<vehicle id="v134" depart="625" route="sr1064" type="CarDefault" departLane="random" />
	<vehicle id="v61" depart="625.64" route="sr1064" type="CarDefault" departLane="random" />
	<vehicle id="v934" depart="626" route="sr1065" type="CarDefault" departLane="random" />
	<vehicle id="v811" depart="626.87" route="sr1065" type="CarDefault" departLane="random" />
	<vehicle id="v942" depart="628" route="sr1065" type="CarDefault" departLane="random" />
	<vehicle id="v1998" depart="629.63" route="sr1066" type="CarDefault" departLane="random" />
	<vehicle id="v812" depart="632.84" route="sr1065" type="CarDefault" departLane="random" />
	<vehicle id="v62" depart="635.9" route="sr1064" type="CarDefault" departLane="random" />
	<vehicle id="v1999" depart="637.04" route="sr1066" type="CarDefault" departLane="random" />
	<vehicle id="v813" depart="638.81" route="sr1065" type="CarDefault" departLane="random" />
	<vehicle id="v2089" depart="639" route="sr1066" type="CarDefault" departLane="random" />
	<vehicle id="v2000" depart="644.44" route="sr1066" type="CarDefault" departLane="random" />
	<vehicle id="v814" depart="644.78" route="sr1065" type="CarDefault" departLane="random" />
	<vehicle id="v944" depart="646" route="sr1065" type="CarDefault" departLane="random" />
	<vehicle id="v63" depart="646.15" route="sr1064" type="CarDefault" departLane="random" />
	<vehicle id="v932" depart="648" route="sr1065" type="CarDefault" departLane="random" />
	<vehicle id="v2093" depart="650" route="sr1066" type="CarDefault" departLane="random" />
	<vehicle id="v815" depart="650.75" route="sr1065" type="CarDefault" departLane="random" />
	<vehicle id="v2001" depart="651.85" route="sr1066" type="CarDefault" departLane="random" />
	<vehicle id="v920" depart="652" route="sr1065" type="CarDefault" departLane="random" />
	<vehicle id="v64" depart="656.41" route="sr1064" type="CarDefault" departLane="random" />
	<vehicle id="v816" depart="656.72" route="sr1065" type="CarDefault" departLane="random" />
	<vehicle id="v2002" depart="659.26" route="sr1066" type="CarDefault" departLane="random" />
	<vehicle id="v817" depart="662.69" route="sr1065" type="CarDefault" departLane="random" />
	<vehicle id="v909" depart="666" route="sr1065" type="CarDefault" departLane="random" />
	<vehicle id="v65" depart="666.67" route="sr1064" type="CarDefault" departLane="random" />
	<vehicle id="v2003" depart="666.67" route="sr1066" type="CarDefault" departLane="random" />
	<vehicle id="v818" depart="668.66" route="sr1065" type="CarDefault" departLane="random" />
	<vehicle id="v2101" depart="671" route="sr1066" type="CarDefault" departLane="random" />
	<vehicle id="v2004" depart="674.07" route="sr1066" type="CarDefault" departLane="random" />
	<vehicle id="v819" depart="674.63" route="sr1065" type="CarDefault" departLane="random" />
	<vehicle id="v66" depart="676.92" route="sr1064" type="CarDefault" departLane="random" />
	<vehicle id="v930" depart="677" route="sr1065" type="CarDefault" departLane="random" />
	<vehicle id="v820" depart="680.6" route="sr1065" type="CarDefault" departLane="random" />
	<vehicle id="v2005" depart="681.48" route="sr1066" type="CarDefault" departLane="random" />
	<vehicle id="v821" depart="686.57" route="sr1065" type="CarDefault" departLane="random" />
	<vehicle id="v936" depart="687" route="sr1065" type="CarDefault" departLane="random" />
	<vehicle id="v67" depart="687.18" route="sr1064" type="CarDefault" departLane="random" />
	<vehicle id="v118" depart="688" route="sr1064" type="CarDefault" departLane="random" />
	<vehicle id="v2006" depart="688.89" route="sr1066" type="CarDefault" departLane="random" />
	<vehicle id="v822" depart="692.54" route="sr1065" type="CarDefault" departLane="random" />
	<vehicle id="v2007" depart="696.3" route="sr1066" type="CarDefault" departLane="random" />
	<vehicle id="v68" depart="697.44" route="sr1064" type="CarDefault" departLane="random" />
	<vehicle id="v933" depart="698" route="sr1065" type="CarDefault" departLane="random" />
	<vehicle id="v823" depart="698.51" route="sr1065" type="CarDefault" departLane="random" />
	<vehicle id="v2008" depart="703.7" route="sr1066" type="CarDefault" departLane="random" />
	<vehicle id="v824" depart="704.48" route="sr1065" type="CarDefault" departLane="random" />
	<vehicle id="v69" depart="707.69" route="sr1064" type="CarDefault" departLane="random" />
	<vehicle id="v2088" depart="708" route="sr1066" type="CarDefault" departLane="random" />
	<vehicle id="v825" depart="710.45" route="sr1065" type="CarDefault" departLane="random" />
	<vehicle id="v2009" depart="711.11" route="sr1066" type="CarDefault" departLane="random" />
	<vehicle id="v826" depart="716.42" route="sr1065" type="CarDefault" departLane="random" />
	<vehicle id="v70" depart="717.95" route="sr1064" type="CarDefault" departLane="random" />
	<vehicle id="v136" depart="718" route="sr1064" type="CarDefault" departLane="random" />
	<vehicle id="v2010" depart="718.52" route="sr1066" type="CarDefault" departLane="random" />
	<vehicle id="v827" depart="722.39" route="sr1065" type="CarDefault" departLane="random" />
	<vehicle id="v2077" depart="724" route="sr1066" type="CarDefault" departLane="random" />
	<vehicle id="v2011" depart="725.93" route="sr1066" type="CarDefault" departLane="random" />
	<vehicle id="v71" depart="728.21" route="sr1064" type="CarDefault" departLane="random" />
	<vehicle id="v828" depart="728.36" route="sr1065" type="CarDefault" departLane="random" />
	<vehicle id="v2012" depart="733.33" route="sr1066" type="CarDefault" departLane="random" />
	<vehicle id="v829" depart="734.33" route="sr1065" type="CarDefault" departLane="random" />
	<vehicle id="v912" depart="735" route="sr1065" type="CarDefault" departLane="random" />
	<vehicle id="v938" depart="736" route="sr1065" type="CarDefault" departLane="random" />
	<vehicle id="v937" depart="738" route="sr1065" type="CarDefault" departLane="random" />
	<vehicle id="v72" depart="738.46" route="sr1064" type="CarDefault" departLane="random" />
	<vehicle id="v830" depart="740.3" route="sr1065" type="CarDefault" departLane="random" />