<?xml version='1.0' encoding='utf-8'?>
<routes>
	<vType accel="3.0" decel="6.0" id="CarDefault" length="5.0" minGap="2.5" maxSpeed="50.0" sigma="0.5" />
	<route id="sr461" edges="62 129 61 6 5 161 162 361 163 164 38 134 116 115 114 113 112 74 73 72 71 70 69 68" fromJunction="154" toJunction="42" />
	<route id="sr459" edges="135 56 111 110 335 336 337 338 63 339 95 251 364 365 366 367 368 348 141 431 255" fromJunction="117" toJunction="154" />
	<route id="r9786" edges="226 227 228 454 206 185 186 103 386 93 156 278 41 40 237 0" fromJunction="127" toJunction="117" />
	<route id="sr460" edges="226 227 228 116 359 300 301 124 30 29 397 398 399 400 401 237 0" fromJunction="127" toJunction="117" />
	<route id="r9787" edges="135 56 230 302 303 304 238 387 414 251 364 365 366 367 368 348 141 431 255" fromJunction="117" toJunction="154" />
	<vehicle id="v82" depart="0.0" route="sr459" type="CarDefault" departLane="random" />
	<vehicle id="v887" depart="0.0" route="sr460" type="CarDefault" departLane="random" />
	<vehicle id="v1624" depart="0.0" route="sr461" type="CarDefault" departLane="random" />
	<vehicle id="v888" depart="4.89" route="sr460" type="CarDefault" departLane="random" />
	<vehicle id="v83" depart="5.01" route="sr459" type="CarDefault" departLane="random" />
	<vehicle id="v1625" depart="7.41" route="sr461" type="CarDefault" departLane="random" />
	<vehicle id="v889" depart="9.78" route="sr460" type="CarDefault" departLane="random" />
	<vehicle id="v84" depart="10.01" route="sr459" type="CarDefault" departLane="random" />
	<vehicle id="v802" depart="12" route="sr460" type="CarDefault" departLane="random" />
	<vehicle id="v890" depart="14.67" route="sr460" type="CarDefault" departLane="random" />
	<vehicle id="v1626" depart="14.81" route="sr461" type="CarDefault" departLane="random" />
	<vehicle id="v85" depart="15.02" route="sr459" type="CarDefault" departLane="random" />
	<vehicle id="v891" depart="19.57" route="sr460" type="CarDefault" departLane="random" />
	<vehicle id="v86" depart="20.03" route="sr459" type="CarDefault" departLane="random" />
	<vehicle id="v1627" depart="22.22" route="sr461" type="CarDefault" departLane="random" />
	<vehicle id="v892" depart="24.46" route="sr460" type="CarDefault" departLane="random" />
	<vehicle id="v0" depart="25" route="sr459" type="CarDefault" departLane="random" />
	<vehicle id="v87" depart="25.03" route="sr459" type="CarDefault" departLane="random" />
	<vehicle id="v893" depart="29.35" route="sr460" type="CarDefault" departLane="random" />
	<vehicle id="v1628" depart="29.63" route="sr461" type="CarDefault" departLane="random" />
	<vehicle id="v88" depart="30.04" route="sr459" type="CarDefault" departLane="random" />
	<vehicle id="v803" depart="34" route="sr460" type="CarDefault" departLane="random" />
	<vehicle id="v894" depart="34.24" route="sr460" type="CarDefault" departLane="random" />
	<vehicle id="v89" depart="35.05" route="sr459" type="CarDefault" departLane="random" />
	<vehicle id="v1629" depart="37.04" route="sr461" type="CarDefault" departLane="random" />
	<vehicle id="v895" depart="39.13" route="sr460" type="CarDefault" departLane="random" />
	<vehicle id="v90" depart="40.06" route="sr459" type="CarDefault" departLane="random" />
	<vehicle id="v896" depart="44.02" route="sr460" type="CarDefault" departLane="random" />
	<vehicle id="v1630" depart="44.44" route="sr461" type="CarDefault" departLane="random" />
	<vehicle id="v91" depart="45.06" route="sr459" type="CarDefault" departLane="random" />
	<vehicle id="v897" depart="48.91" route="sr460" type="CarDefault" departLane="random" />
	<vehicle id="v92" depart="50.07" route="sr459" type="CarDefault" departLane="random" />
	<vehicle id="v1631" depart="51.85" route="sr461" type="CarDefault" departLane="random" />
	<vehicle id="v898" depart="53.8" route="sr460" type="CarDefault" departLane="random" />
	<vehicle id="v804" depart="55" route="sr460" type="CarDefault" departLane="random" />
	<vehicle id="v93" depart="55.08" route="sr459" type="CarDefault" departLane="random" />
	<vehicle id="v1" depart="56" route="sr459" type="CarDefault" departLane="random" />
	<vehicle id="v899" depart="58.7" route="sr460" type="CarDefault" departLane="random" />
	<vehicle id="v1632" depart="59.26" route="sr461" type="CarDefault" departLane="random" />
	<vehicle id="v94" depart="60.08" route="r9787" type="CarDefault" departLane="random" />
	<vehicle id="v900" depart="63.59" route="r9786" type="CarDefault" departLane="random" />
	<vehicle id="v95" depart="65.09" route="r9787" type="CarDefault" departLane="random" />
	<vehicle id="v2" depart="66" route="r9787" type="CarDefault" departLane="random" />
	<vehicle id="v1633" depart="66.67" route="sr461" type="CarDefault" departLane="random" />
	<vehicle id="v901" depart="68.48" route="r9786" type="CarDefault" departLane="random" />
	<vehicle id="v96" depart="70.1" route="r9787" type="CarDefault" departLane="random" />
	<vehicle id="v902" depart="73.37" route="r9786" type="CarDefault" departLane="random" />
	<vehicle id="v1634" depart="74.07" route="sr461" type="CarDefault" departLane="random" />
	<vehicle id="v97" depart="75.1" route="r9787" type="CarDefault" departLane="random" />
	<vehicle id="v903" depart="78.26" route="r9786" type="CarDefault" departLane="random" />
	<vehicle id="v98" depart="80.11" route="r9787" type="CarDefault" departLane="random" />
	<vehicle id="v1635" depart="81.48" route="sr461" type="CarDefault" departLane="random" />
	<vehicle id="v805" depart="82" route="r9786" type="CarDefault" departLane="random" />
	<vehicle id="v904" depart="83.15" route="r9786" type="CarDefault" departLane="random" />
	<vehicle id="v99" depart="85.12" route="r9787" type="CarDefault" departLane="random" />
	<vehicle id="v905" depart="88.04" route="r9786" type="CarDefault" departLane="random" />
	<vehicle id="v1636" depart="88.89" route="sr461" type="CarDefault" departLane="random" />
	<vehicle id="v100" depart="90.13" route="r9787" type="CarDefault" departLane="random" />
	<vehicle id="v906" depart="92.93" route="r9786" type="CarDefault" departLane="random" />
	<vehicle id="v101" depart="95.13" route="r9787" type="CarDefault" departLane="random" />
	<vehicle id="v1637" depart="96.3" route="sr461" type="CarDefault" departLane="random" />
	<vehicle id="v907" depart="97.83" route="r9786" type="CarDefault" departLane="random" />
	<vehicle id="v102" depart="100.14" route="r9787" type="CarDefault" departLane="random" />
	<vehicle id="v3" depart="101" route="r9787" type="CarDefault" departLane="random" />
	<vehicle id="v908" depart="102.72" route="r9786" type="CarDefault" departLane="random" />
	<vehicle id="v1638" depart="103.7" route="sr461" type="CarDefault" departLane="random" />
	<vehicle id="v103" depart="105.15" route="r9787" type="CarDefault" departLane="random" />
	<vehicle id="v909" depart="107.61" route="r9786" type="CarDefault" departLane="random" />
	<vehicle id="v104" depart="110.15" route="r9787" type="CarDefault" departLane="random" />
	<vehicle id="v1639" depart="111.11" route="sr461" type="CarDefault" departLane="random" />
	<vehicle id="v910" depart="112.5" route="r9786" type="CarDefault" departLane="random" />
	<vehicle id="v105" depart="115.16" route="r9787" type="CarDefault" departLane="random" />
	<vehicle id="v911" depart="117.39" route="r9786" type="CarDefault" departLane="random" />
	<vehicle id="v1640" depart="118.52" route="sr461" type="CarDefault" departLane="random" />
	<vehicle id="v106" depart="120.17" route="r9787" type="CarDefault" departLane="random" />
	<vehicle id="v912" depart="122.28" route="r9786" type="CarDefault" departLane="random" />
	<vehicle id="v4" depart="125" route="r9787" type="CarDefault" departLane="random" />
	<vehicle id="v107" depart="125.17" route="r9787" type="CarDefault" departLane="random" />
	<vehicle id="v1641" depart="125.93" route="sr461" type="CarDefault" departLane="random" />
	<vehicle id="v913" depart="127.17" route="r9786" type="CarDefault" departLane="random" />
	<vehicle id="v108" depart="130.18" route="r9787" type="CarDefault" departLane="random" />
	<vehicle id="v914" depart="132.07" route="r9786" type="CarDefault" departLane="random" />
	<vehicle id="v1642" depart="133.33" route="sr461" type="CarDefault" departLane="random" />
	<vehicle id="v109" depart="135.19" route="r9787" type="CarDefault" departLane="random" />
	<vehicle id="v915" depart="136.96" route="r9786" type="CarDefault" departLane="random" />
	<vehicle id="v110" depart="140.19" route="r9787" type="CarDefault" departLane="random" />
	<vehicle id="v1643" depart="140.74" route="sr461" type="CarDefault" departLane="random" />
	<vehicle id="v916" depart="141.85" route="r9786" type="CarDefault" departLane="random" />
	<vehicle id="v111" depart="145.2" route="r9787" type="CarDefault" departLane="random" />
	<vehicle id="v917" depart="146.74" route="r9786" type="CarDefault" departLane="random" />
	<vehicle id="v1644" depart="148.15" route="sr461" type="CarDefault" departLane="random" />
	<vehicle id="v112" depart="150.21" route="sr459" type="CarDefault" departLane="random" />
	<vehicle id="v918" depart="151.63" route="sr460" type="CarDefault" departLane="random" />
	<vehicle id="v113" depart="155.22" route="sr459" type="CarDefault" departLane="random" />
	<vehicle id="v1645" depart="155.56" route="sr461" type="CarDefault" departLane="random" />
	<vehicle id="v919" depart="156.52" route="sr460" type="CarDefault" departLane="random" />
	<vehicle id="v114" depart="160.22" route="sr459" type="CarDefault" departLane="random" />
	<vehicle id="v920" depart="161.41" route="sr460" type="CarDefault" departLane="random" />
	<vehicle id="v5" depart="162" route="sr459" type="CarDefault" departLane="random" />
	<vehicle id="v1646" depart="162.96" route="sr461" type="CarDefault" departLane="random" />
	<vehicle id="v806" depart="164" route="sr460" type="CarDefault" departLane="random" />
	<vehicle id="v115" depart="165.23" route="sr459" type="CarDefault" departLane="random" />
	<vehicle id="v921" depart="166.3" route="sr460" type="CarDefault" departLane="random" />
	<vehicle id="v116" depart="170.24" route="sr459" type="CarDefault" departLane="random" />
	<vehicle id="v1647" depart="170.37" route="sr461" type="CarDefault" departLane="random" />
	<vehicle id="v922" depart="171.2" route="sr460" type="CarDefault" departLane="random" />
	<vehicle id="v117" depart="175.24" route="sr459" type="CarDefault" departLane="random" />
	<vehicle id="v923" depart="176.09" route="sr460" type="CarDefault" departLane="random" />
	<vehicle id="v1648" depart="177.78" route="sr461" type="CarDefault" departLane="random" />
	<vehicle id="v118" depart="180.25" route="r9787" type="CarDefault" departLane="random" />
	<vehicle id="v924" depart="180.98" route="r9786" type="CarDefault" departLane="random" />
	<vehicle id="v1649" depart="185.19" route="sr461" type="CarDefault" departLane="random" />
	<vehicle id="v119" depart="185.26" route="r9787" type="CarDefault" departLane="random" />
	<vehicle id="v925" depart="185.87" route="r9786" type="CarDefault" departLane="random" />
	<vehicle id="v120" depart="190.26" route="r9787" type="CarDefault" departLane="random" />
	<vehicle id="v926" depart="190.76" route="r9786" type="CarDefault" departLane="random" />
	<vehicle id="v1650" depart="192.59" route="sr461" type="CarDefault" departLane="random" />
	<vehicle id="v121" depart="195.27" route="r9787" type="CarDefault" departLane="random" />
	<vehicle id="v927" depart="195.65" route="r9786" type="CarDefault" departLane="random" />
	<vehicle id="v1651" depart="200.0" route="sr461" type="CarDefault" departLane="random" />
	<vehicle id="v122" depart="200.28" route="r9787" type="CarDefault" departLane="random" />
	<vehicle id="v928" depart="200.54" route="r9786" type="CarDefault" departLane="random" />
	<vehicle id="v123" depart="205.29" route="r9787" type="CarDefault" departLane="random" />
	<vehicle id="v929" depart="205.43" route="r9786" type="CarDefault" departLane="random" />
	<vehicle id="v1652" depart="207.41" route="sr461" type="CarDefault" departLane="random" />
	<vehicle id="v124" depart="210.29" route="sr459" type="CarDefault" departLane="random" />
	<vehicle id="v930" depart="210.33" route="sr460" type="CarDefault" departLane="random" />
	<vehicle id="v1653" depart="214.81" route="sr461" type="CarDefault" departLane="random" />
	<vehicle id="v931" depart="215.22" route="sr460" type="CarDefault" departLane="random" />
	<vehicle id="v125" depart="215.3" route="sr459" type="CarDefault" departLane="random" />
	<vehicle id="v932" depart="220.11" route="sr460" type="CarDefault" departLane="random" />
	<vehicle id="v126" depart="220.31" route="sr459" type="CarDefault" departLane="random" />
	<vehicle id="v6" depart="221" route="sr459" type="CarDefault" departLane="random" />
	<vehicle id="v1654" depart="222.22" route="sr461" type="CarDefault" departLane="random" />
	<vehicle id="v933" depart="225.0" route="sr460" type="CarDefault" departLane="random" />
	<vehicle id="v127" depart="225.31" route="sr459" type="CarDefault" departLane="random" />
	<vehicle id="v807" depart="228" route="sr460" type="CarDefault" departLane="random" />
	<vehicle id="v1655" depart="229.63" route="sr461" type="CarDefault" departLane="random" />
	<vehicle id="v934" depart="229.89" route="sr460" type="CarDefault" departLane="random" />
	<vehicle id="v128" depart="230.32" route="sr459" type="CarDefault" departLane="random" />
	<vehicle id="v935" depart="234.78" route="sr460" type="CarDefault" departLane="random" />
	<vehicle id="v129" depart="235.33" route="sr459" type="CarDefault" departLane="random" />
	<vehicle id="v1656" depart="237.04" route="sr461" type="CarDefault" departLane="random" />
	<vehicle id="v936" depart="239.67" route="sr460" type="CarDefault" departLane="random" />
	<vehicle id="v130" depart="240.33" route="r9787" type="CarDefault" departLane="random" />
	<vehicle id="v1657" depart="244.44" route="sr461" type="CarDefault" departLane="random" />
	<vehicle id="v937" depart="244.57" route="r9786" type="CarDefault" departLane="random" />
	<vehicle id="v131" depart="245.34" route="r9787" type="CarDefault" departLane="random" />
	<vehicle id="v938" depart="249.46" route="r9786" type="CarDefault" departLane="random" />
	<vehicle id="v132" depart="250.35" route="r9787" type="CarDefault" departLane="random" />
	<vehicle id="v1658" depart="251.85" route="sr461" type="CarDefault" departLane="random" />
	<vehicle id="v7" depart="254" route="r9787" type="CarDefault" departLane="random" />
	<vehicle id="v939" depart="254.35" route="r9786" type="CarDefault" departLane="random" />
	<vehicle id="v133" depart="255.35" route="r9787" type="CarDefault" departLane="random" />
	<vehicle id="v940" depart="259.24" route="r9786" type="CarDefault" departLane="random" />
	<vehicle id="v1659" depart="259.26" route="sr461" type="CarDefault" departLane="random" />
	<vehicle id="v134" depart="260.36" route="r9787" type="CarDefault" departLane="random" />
	<vehicle id="v941" depart="264.13" route="r9786" type="CarDefault" departLane="random" />
	<vehicle id="v135" depart="265.37" route="r9787" type="CarDefault" departLane="random" />
	<vehicle id="v1660" depart="266.67" route="sr461" type="CarDefault" departLane="random" />
	<vehicle id="v942" depart="269.02" route="r9786" type="CarDefault" departLane="random" />
	<vehicle id="v136" depart="270.38" route="r9787" type="CarDefault" departLane="random" />
	<vehicle id="v943" depart="273.91" route="r9786" type="CarDefault" departLane="random" />
	<vehicle id="v1661" depart="274.07" route="sr461" type="CarDefault" departLane="random" />
	<vehicle id="v137" depart="275.38" route="r9787" type="CarDefault" departLane="random" />
	<vehicle id="v944" depart="278.8" route="r9786" type="CarDefault" departLane="random" />
	<vehicle id="v138" depart="280.39" route="r9787" type="CarDefault" departLane="random" />
	<vehicle id="v1662" depart="281.48" route="sr461" type="CarDefault" departLane="random" />
	<vehicle id="v945" depart="283.7" route="r9786" type="CarDefault" departLane="random" />
	<vehicle id="v139" depart="285.4" route="r9787" type="CarDefault" departLane="random" />
	<vehicle id="v946" depart="288.59" route="r9786" type="CarDefault" departLane="random" />
	<vehicle id="v1663" depart="288.89" route="sr461" type="CarDefault" departLane="random" />
	<vehicle id="v140" depart="290.4" route="r9787" type="CarDefault" departLane="random" />
	<vehicle id="v808" depart="291" route="r9786" type="CarDefault" departLane="random" />
	<vehicle id="v947" depart="293.48" route="r9786" type="CarDefault" departLane="random" />
	<vehicle id="v141" depart="295.41" route="r9787" type="CarDefault" departLane="random" />
	<vehicle id="v1664" depart="296.3" route="sr461" type="CarDefault" departLane="random" />
	<vehicle id="v948" depart="298.37" route="r9786" type="CarDefault" departLane="random" />
	<vehicle id="v142" depart="300.42" route="r9787" type="CarDefault" departLane="random" />
	<vehicle id="v949" depart="303.26" route="r9786" type="CarDefault" departLane="random" />
	<vehicle id="v1665" depart="303.7" route="sr461" type="CarDefault" departLane="random" />
	<vehicle id="v143" depart="305.42" route="r9787" type="CarDefault" departLane="random" />
	<vehicle id="v950" depart="308.15" route="r9786" type="CarDefault" departLane="random" />
	<vehicle id="v144" depart="310.43" route="r9787" type="CarDefault" departLane="random" />
	<vehicle id="v1666" depart="311.11" route="sr461" type="CarDefault" departLane="random" />
	<vehicle id="v951" depart="313.04" route="r9786" type="CarDefault" departLane="random" />
	<vehicle id="v145" depart="315.44" route="r9787" type="CarDefault" departLane="random" />
	<vehicle id="v952" depart="317.93" route="r9786" type="CarDefault" departLane="random" />
	<vehicle id="v1667" depart="318.52" route="sr461" type="CarDefault" departLane="random" />
	<vehicle id="v146" depart="320.45" route="r9787" type="CarDefault" departLane="random" />
	<vehicle id="v953" depart="322.83" route="r9786" type="CarDefault" departLane="random" />
	<vehicle id="v147" depart="325.45" route="r9787" type="CarDefault" departLane="random" />
	<vehicle id="v1668" depart="325.93" route="sr461" type="CarDefault" departLane="random" />
	<vehicle id="v8" depart="327" route="r9787" type="CarDefault" departLane="random" />
	<vehicle id="v954" depart="327.72" route="r9786" type="CarDefault" departLane="random" />
	<vehicle id="v148" depart="330.46" route="sr459" type="CarDefault" departLane="random" />
	<vehicle id="v955" depart="332.61" route="sr460" type="CarDefault" departLane="random" />
	<vehicle id="v1669" depart="333.33" route="sr461" type="CarDefault" departLane="random" />
	<vehicle id="v809" depart="335" route="sr460" type="CarDefault" departLane="random" />
	<vehicle id="v149" depart="335.47" route="sr459" type="CarDefault" departLane="random" />
	<vehicle id="v956" depart="337.5" route="sr460" type="CarDefault" departLane="random" />
	<vehicle id="v150" depart="340.47" route="sr459" type="CarDefault" departLane="random" />
	<vehicle id="v1670" depart="340.74" route="sr461" type="CarDefault" departLane="random" />
	<vehicle id="v957" depart="342.39" route="sr460" type="CarDefault" departLane="random" />
	<vehicle id="v151" depart="345.48" route="sr459" type="CarDefault" departLane="random" />
	<vehicle id="v810" depart="347" route="sr460" type="CarDefault" departLane="random" />
	<vehicle id="v958" depart="347.28" route="sr460" type="CarDefault" departLane="random" />
	<vehicle id="v1671" depart="348.15" route="sr461" type="CarDefault" departLane="random" />
	<vehicle id="v152" depart="350.49" route="sr459" type="CarDefault" departLane="random" />
	<vehicle id="v959" depart="352.17" route="sr460" type="CarDefault" departLane="random" />
	<vehicle id="v153" depart="355.49" route="sr459" type="CarDefault" departLane="random" />
	<vehicle id="v1672" depart="355.56" route="sr461" type="CarDefault" departLane="random" />
	<vehicle id="v960" depart="357.07" route="sr460" type="CarDefault" departLane="random" />
	<vehicle id="v154" depart="360.5" route="sr459" type="CarDefault" departLane="random" />
	<vehicle id="v961" depart="361.96" route="sr460" type="CarDefault" departLane="random" />
	<vehicle id="v1673" depart="362.96" route="sr461" type="CarDefault" departLane="random" />
	<vehicle id="v811" depart="363" route="sr460" type="CarDefault" departLane="random" />
	<vehicle id="v155" depart="365.51" route="sr459" type="CarDefault" departLane="random" />
	<vehicle id="v962" depart="366.85" route="sr460" type="CarDefault" departLane="random" />
	<vehicle id="v1674" depart="370.37" route="sr461" type="CarDefault" departLane="random" />
	<vehicle id="v156" depart="370.51" route="sr459" type="CarDefault" departLane="random" />
	<vehicle id="v963" depart="371.74" route="sr460" type="CarDefault" departLane="random" />
	<vehicle id="v157" depart="375.52" route="sr459" type="CarDefault" departLane="random" />
	<vehicle id="v964" depart="376.63" route="sr460" type="CarDefault" departLane="random" />
	<vehicle id="v1675" depart="377.78" route="sr461" type="CarDefault" departLane="random" />
	<vehicle id="v158" depart="380.53" route="sr459" type="CarDefault" departLane="random" />
	<vehicle id="v965" depart="381.52" route="sr460" type="CarDefault" departLane="random" />
	<vehicle id="v812" depart="384" route="sr460" type="CarDefault" departLane="random" />
	<vehicle id="v1676" depart="385.19" route="sr461" type="CarDefault" departLane="random" />
	<vehicle id="v159" depart="385.54" route="sr459" type="CarDefault" departLane="random" />
	<vehicle id="v966" depart="386.41" route="sr460" type="CarDefault" departLane="random" />
	<vehicle id="v160" depart="390.54" route="sr459" type="CarDefault" departLane="random" />
	<vehicle id="v967" depart="391.3" route="sr460" type="CarDefault" departLane="random" />
	<vehicle id="v9" depart="392" route="sr459" type="CarDefault" departLane="random" />
	<vehicle id="v1677" depart="392.59" route="sr461" type="CarDefault" departLane="random" />
	<vehicle id="v161" depart="395.55" route="sr459" type="CarDefault" departLane="random" />
	<vehicle id="v968" depart="396.2" route="sr460" type="CarDefault" departLane="random" />
	<vehicle id="v1678" depart="400.0" route="sr461" type="CarDefault" departLane="random" />
	<vehicle id="v162" depart="400.56" route="sr459" type="CarDefault" departLane="random" />
	<vehicle id="v969" depart="401.09" route="sr460" type="CarDefault" departLane="random" />
	<vehicle id="v163" depart="405.56" route="sr459" type="CarDefault" departLane="random" />
	<vehicle id="v970" depart="405.98" route="sr460" type="CarDefault" departLane="random" />
	<vehicle id="v813" depart="407" route="sr460" type="CarDefault" departLane="random" />
	<vehicle id="v1679" depart="407.41" route="sr461" type="CarDefault" departLane="random" />
	<vehicle id="v164" depart="410.57" route="sr459" type="CarDefault" departLane="random" />
	<vehicle id="v971" depart="410.87" route="sr460" type="CarDefault" departLane="random" />
	<vehicle id="v1680" depart="414.81" route="sr461" type="CarDefault" departLane="random" />
	<vehicle id="v165" depart="415.58" route="sr459" type="CarDefault" departLane="random" />
	<vehicle id="v972" depart="415.76" route="sr460" type="CarDefault" departLane="random" />
	<vehicle id="v166" depart="420.58" route="r9787" type="CarDefault" departLane="random" />
	<vehicle id="v973" depart="420.65" route="r9786" type="CarDefault" departLane="random" />
	<vehicle id="v1681" depart="422.22" route="sr461" type="CarDefault" departLane="random" />
	<vehicle id="v974" depart="425.54" route="r9786" type="CarDefault" departLane="random" />
	<vehicle id="v167" depart="425.59" route="r9787" type="CarDefault" departLane="random" />
	<vehicle id="v1682" depart="429.63" route="sr461" type="CarDefault" departLane="random" />
	<vehicle id="v975" depart="430.43" route="r9786" type="CarDefault" departLane="random" />
	<vehicle id="v168" depart="430.6" route="r9787" type="CarDefault" departLane="random" />
	<vehicle id="v976" depart="435.33" route="r9786" type="CarDefault" departLane="random" />
	<vehicle id="v169" depart="435.61" route="r9787" type="CarDefault" departLane="random" />
	<vehicle id="v1683" depart="437.04" route="sr461" type="CarDefault" departLane="random" />
	<vehicle id="v977" depart="440.22" route="r9786" type="CarDefault" departLane="random" />
	<vehicle id="v170" depart="440.61" route="r9787" type="CarDefault" departLane="random" />
	<vehicle id="v1684" depart="444.44" route="sr461" type="CarDefault" departLane="random" />
	<vehicle id="v978" depart="445.11" route="r9786" type="CarDefault" departLane="random" />
	<vehicle id="v171" depart="445.62" route="r9787" type="CarDefault" departLane="random" />
	<vehicle id="v979" depart="450.0" route="sr460" type="CarDefault" departLane="random" />
	<vehicle id="v172" depart="450.63" route="sr459" type="CarDefault" departLane="random" />
	<vehicle id="v1685" depart="451.85" route="sr461" type="CarDefault" departLane="random" />
	<vehicle id="v10" depart="453" route="sr459" type="CarDefault" departLane="random" />
	<vehicle id="v980" depart="454.89" route="sr460" type="CarDefault" departLane="random" />
	<vehicle id="v173" depart="455.63" route="sr459" type="CarDefault" departLane="random" />
	<vehicle id="v1686" depart="459.26" route="sr461" type="CarDefault" departLane="random" />
	<vehicle id="v981" depart="459.78" route="sr460" type="CarDefault" departLane="random" />
	<vehicle id="v174" depart="460.64" route="sr459" type="CarDefault" departLane="random" />
	<vehicle id="v814" depart="463" route="sr460" type="CarDefault" departLane="random" />
	<vehicle id="v982" depart="464.67" route="sr460" type="CarDefault" departLane="random" />
	<vehicle id="v175" depart="465.65" route="sr459" type="CarDefault" departLane="random" />
	<vehicle id="v1687" depart="466.67" route="sr461" type="CarDefault" departLane="random" />
	<vehicle id="v983" depart="469.57" route="sr460" type="CarDefault" departLane="random" />
	<vehicle id="v176" depart="470.65" route="sr459" type="CarDefault" departLane="random" />
	<vehicle id="v1688" depart="474.07" route="sr461" type="CarDefault" departLane="random" />
	<vehicle id="v984" depart="474.46" route="sr460" type="CarDefault" departLane="random" />
	<vehicle id="v177" depart="475.66" route="sr459" type="CarDefault" departLane="random" />
	<vehicle id="v985" depart="479.35" route="sr460" type="CarDefault" departLane="random" />
	<vehicle id="v178" depart="480.67" route="r9787" type="CarDefault" departLane="random" />
	<vehicle id="v1689" depart="481.48" route="sr461" type="CarDefault" departLane="random" />
	<vehicle id="v986" depart="484.24" route="r9786" type="CarDefault" departLane="random" />
	<vehicle id="v179" depart="485.67" route="r9787" type="CarDefault" departLane="random" />
	<vehicle id="v1690" depart="488.89" route="sr461" type="CarDefault" departLane="random" />
	<vehicle id="v987" depart="489.13" route="r9786" type="CarDefault" departLane="random" />
	<vehicle id="v180" depart="490.68" route="r9787" type="CarDefault" departLane="random" />
	<vehicle id="v988" depart="494.02" route="r9786" type="CarDefault" departLane="random" />
	<vehicle id="v181" depart="495.69" route="r9787" type="CarDefault" departLane="random" />
	<vehicle id="v1691" depart="496.3" route="sr461" type="CarDefault" departLane="random" />
	<vehicle id="v989" depart="498.91" route="r9786" type="CarDefault" departLane="random" />
	<vehicle id="v182" depart="500.7" route="r9787" type="CarDefault" departLane="random" />
	<vehicle id="v815" depart="502" route="r9786" type="CarDefault" departLane="random" />
	<vehicle id="v1692" depart="503.7" route="sr461" type="CarDefault" departLane="random" />
	<vehicle id="v990" depart="503.8" route="r9786" type="CarDefault" departLane="random" />
	<vehicle id="v183" depart="505.7" route="r9787" type="CarDefault" departLane="random" />
	<vehicle id="v991" depart="508.7" route="r9786" type="CarDefault" departLane="random" />
	<vehicle id="v184" depart="510.71" route="sr459" type="CarDefault" departLane="random" />
	<vehicle id="v1693" depart="511.11" route="sr461" type="CarDefault" departLane="random" />
	<vehicle id="v992" depart="513.59" route="sr460" type="CarDefault" departLane="random" />
	<vehicle id="v11" depart="515" route="sr459" type="CarDefault" departLane="random" />
	<vehicle id="v185" depart="515.72" route="sr459" type="CarDefault" departLane="random" />
	<vehicle id="v993" depart="518.48" route="sr460" type="CarDefault" departLane="random" />
	<vehicle id="v1694" depart="518.52" route="sr461" type="CarDefault" departLane="random" />
	<vehicle id="v186" depart="520.72" route="sr459" type="CarDefault" departLane="random" />
	<vehicle id="v12" depart="521" route="sr459" type="CarDefault" departLane="random" />
	<vehicle id="v994" depart="523.37" route="sr460" type="CarDefault" departLane="random" />
	<vehicle id="v187" depart="525.73" route="sr459" type="CarDefault" departLane="random" />
	<vehicle id="v1695" depart="525.93" route="sr461" type="CarDefault" departLane="random" />
	<vehicle id="v995" depart="528.26" route="sr460" type="CarDefault" departLane="random" />
	<vehicle id="v188" depart="530.74" route="sr459" type="CarDefault" departLane="random" />
	<vehicle id="v996" depart="533.15" route="sr460" type="CarDefault" departLane="random" />
	<vehicle id="v1696" depart="533.33" route="sr461" type="CarDefault" departLane="random" />
	<vehicle id="v189" depart="535.74" route="sr459" type="CarDefault" departLane="random" />
	<vehicle id="v997" depart="538.04" route="sr460" type="CarDefault" departLane="random" />
	<vehicle id="v1697" depart="540.74" route="sr461" type="CarDefault" departLane="random" />
	<vehicle id="v190" depart="540.75" route="r9787" type="CarDefault" departLane="random" />
	<vehicle id="v998" depart="542.93" route="r9786" type="CarDefault" departLane="random" />