<?xml version='1.0' encoding='utf-8'?>
<routes>
	<vType accel="3.0" decel="6.0" id="CarDefault" length="5.0" minGap="2.5" maxSpeed="50.0" sigma="0.5" />
	<route id="r4773" edges="488 984 985 989 990 415 233 886 774 502 627 112 111 110 546 547 548 549 891 766 550 551 552 99 98 867 706" fromJunction="357" toJunction="248" />
	<route id="r4771" edges="226 225 224 1030 1028 114 457 323 774 502 892 893 503 740 1009 505 962 963 401" fromJunction="87" toJunction="358" />
	<route id="sr1066" edges="488 975 976 743 744 745 741 742 430 210 12 11 341 627 628 967 968 957 958 511 512 513 890 891 766 1018 1019 1020 1021 1022 898 961 1017 960 706" fromJunction="357" toJunction="248" />
	<route id="r4772" edges="288 287 739 415 233 886 774 502 892 893 503 13 371 335 253 252 269 268 387 386 383 821 822" fromJunction="241" toJunction="316" />
	<route id="sr1064" edges="226 225 224 432 317 115 1029 444 443 506 507 508 509 510 892 893 503 740 1009 505 962 963 401" fromJunction="87" toJunction="358" />
	<route id="sr1065" edges="288 287 739 415 233 886 774 502 892 893 503 13 229 972 479 480 922 712 487 711 254 386 390 389 388 822" fromJunction="241" toJunction="316" />
	<vehicle id="v88" depart="0.0" route="r4771" type="CarDefault" departLane="random" />
	<vehicle id="v949" depart="0.0" route="r4772" type="CarDefault" departLane="random" />
	<vehicle id="v1927" depart="0.0" route="r4773" type="CarDefault" departLane="random" />
	<vehicle id="v89" depart="4.19" route="r4771" type="CarDefault" departLane="random" />
	<vehicle id="v950" depart="7.41" route="r4772" type="CarDefault" departLane="random" />
	<vehicle id="v1928" depart="8.11" route="r4773" type="CarDefault" departLane="random" />
	<vehicle id="v90" depart="8.37" route="r4771" type="CarDefault" departLane="random" />
	<vehicle id="v91" depart="12.56" route="r4771" type="CarDefault" departLane="random" />
	<vehicle id="v951" depart="14.81" route="r4772" type="CarDefault" departLane="random" />
	<vehicle id="v1929" depart="16.22" route="r4773" type="CarDefault" departLane="random" />
	<vehicle id="v92" depart="16.74" route="r4771" type="CarDefault" departLane="random" />
	<vehicle id="v93" depart="20.93" route="r4771" type="CarDefault" departLane="random" />
	<vehicle id="v952" depart="22.22" route="r4772" type="CarDefault" departLane="random" />
	<vehicle id="v1930" depart="24.32" route="r4773" type="CarDefault" departLane="random" />
	<vehicle id="v94" depart="25.12" route="r4771" type="CarDefault" departLane="random" />
	<vehicle id="v95" depart="29.3" route="r4771" type="CarDefault" departLane="random" />
	<vehicle id="v953" depart="29.63" route="r4772" type="CarDefault" departLane="random" />
	<vehicle id="v1931" depart="32.43" route="r4773" type="CarDefault" departLane="random" />
	<vehicle id="v96" depart="33.49" route="r4771" type="CarDefault" departLane="random" />
	<vehicle id="v954" depart="37.04" route="r4772" type="CarDefault" departLane="random" />
	<vehicle id="v97" depart="37.67" route="r4771" type="CarDefault" departLane="random" />
	<vehicle id="v1932" depart="40.54" route="r4773" type="CarDefault" departLane="random" />
	<vehicle id="v98" depart="41.86" route="r4771" type="CarDefault" departLane="random" />
	<vehicle id="v955" depart="44.44" route="r4772" type="CarDefault" departLane="random" />
	<vehicle id="v0" depart="45" route="r4771" type="CarDefault" departLane="random" />
	<vehicle id="v99" depart="46.05" route="r4771" type="CarDefault" departLane="random" />
	<vehicle id="v1933" depart="48.65" route="r4773" type="CarDefault" departLane="random" />
	<vehicle id="v100" depart="50.23" route="r4771" type="CarDefault" departLane="random" />
	<vehicle id="v956" depart="51.85" route="r4772" type="CarDefault" departLane="random" />
	<vehicle id="v101" depart="54.42" route="r4771" type="CarDefault" departLane="random" />
	<vehicle id="v1934" depart="56.76" route="r4773" type="CarDefault" departLane="random" />
	<vehicle id="v102" depart="58.6" route="r4771" type="CarDefault" departLane="random" />
	<vehicle id="v957" depart="59.26" route="r4772" type="CarDefault" departLane="random" />
	<vehicle id="v103" depart="62.79" route="r4771" type="CarDefault" departLane="random" />
	<vehicle id="v1935" depart="64.86" route="r4773" type="CarDefault" departLane="random" />
	<vehicle id="v958" depart="66.67" route="r4772" type="CarDefault" departLane="random" />
	<vehicle id="v104" depart="66.98" route="r4771" type="CarDefault" departLane="random" />
	<vehicle id="v105" depart="71.16" route="r4771" type="CarDefault" departLane="random" />
	<vehicle id="v1936" depart="72.97" route="r4773" type="CarDefault" departLane="random" />
	<vehicle id="v959" depart="74.07" route="r4772" type="CarDefault" departLane="random" />
	<vehicle id="v106" depart="75.35" route="r4771" type="CarDefault" departLane="random" />
	<vehicle id="v107" depart="79.53" route="r4771" type="CarDefault" departLane="random" />
	<vehicle id="v1937" depart="81.08" route="r4773" type="CarDefault" departLane="random" />
	<vehicle id="v960" depart="81.48" route="r4772" type="CarDefault" departLane="random" />
	<vehicle id="v108" depart="83.72" route="r4771" type="CarDefault" departLane="random" />
	<vehicle id="v109" depart="87.91" route="r4771" type="CarDefault" departLane="random" />
	<vehicle id="v961" depart="88.89" route="r4772" type="CarDefault" departLane="random" />
	<vehicle id="v1" depart="89" route="r4771" type="CarDefault" departLane="random" />
	<vehicle id="v1938" depart="89.19" route="r4773" type="CarDefault" departLane="random" />
	<vehicle id="v110" depart="92.09" route="r4771" type="CarDefault" departLane="random" />
	<vehicle id="v111" depart="96.28" route="r4771" type="CarDefault" departLane="random" />
	<vehicle id="v962" depart="96.3" route="r4772" type="CarDefault" departLane="random" />
	<vehicle id="v1939" depart="97.3" route="r4773" type="CarDefault" departLane="random" />
	<vehicle id="v112" depart="100.47" route="r4771" type="CarDefault" departLane="random" />
	<vehicle id="v963" depart="103.7" route="r4772" type="CarDefault" departLane="random" />
	<vehicle id="v113" depart="104.65" route="r4771" type="CarDefault" departLane="random" />
	<vehicle id="v1940" depart="105.41" route="r4773" type="CarDefault" departLane="random" />
	<vehicle id="v114" depart="108.84" route="r4771" type="CarDefault" departLane="random" />
	<vehicle id="v964" depart="111.11" route="r4772" type="CarDefault" departLane="random" />
	<vehicle id="v115" depart="113.02" route="r4771" type="CarDefault" departLane="random" />
	<vehicle id="v1941" depart="113.51" route="r4773" type="CarDefault" departLane="random" />
	<vehicle id="v116" depart="117.21" route="r4771" type="CarDefault" departLane="random" />
	<vehicle id="v965" depart="118.52" route="r4772" type="CarDefault" departLane="random" />
	<vehicle id="v117" depart="121.4" route="r4771" type="CarDefault" departLane="random" />
	<vehicle id="v1942" depart="121.62" route="r4773" type="CarDefault" departLane="random" />
	<vehicle id="v118" depart="125.58" route="r4771" type="CarDefault" departLane="random" />
	<vehicle id="v966" depart="125.93" route="r4772" type="CarDefault" departLane="random" />
	<vehicle id="v1943" depart="129.73" route="r4773" type="CarDefault" departLane="random" />
	<vehicle id="v119" depart="129.77" route="r4771" type="CarDefault" departLane="random" />
	<vehicle id="v967" depart="133.33" route="r4772" type="CarDefault" departLane="random" />
	<vehicle id="v120" depart="133.95" route="r4771" type="CarDefault" departLane="random" />
	<vehicle id="v2" depart="135" route="r4771" type="CarDefault" departLane="random" />
	<vehicle id="v1944" depart="137.84" route="r4773" type="CarDefault" departLane="random" />
	<vehicle id="v121" depart="138.14" route="r4771" type="CarDefault" departLane="random" />
	<vehicle id="v968" depart="140.74" route="r4772" type="CarDefault" departLane="random" />
	<vehicle id="v122" depart="142.33" route="r4771" type="CarDefault" departLane="random" />
	<vehicle id="v1945" depart="145.95" route="r4773" type="CarDefault" departLane="random" />
	<vehicle id="v123" depart="146.51" route="r4771" type="CarDefault" departLane="random" />
	<vehicle id="v969" depart="148.15" route="r4772" type="CarDefault" departLane="random" />
	<vehicle id="v124" depart="150.7" route="r4771" type="CarDefault" departLane="random" />
	<vehicle id="v1946" depart="154.05" route="r4773" type="CarDefault" departLane="random" />
	<vehicle id="v125" depart="154.88" route="r4771" type="CarDefault" departLane="random" />
	<vehicle id="v970" depart="155.56" route="r4772" type="CarDefault" departLane="random" />
	<vehicle id="v126" depart="159.07" route="r4771" type="CarDefault" departLane="random" />
	<vehicle id="v1947" depart="162.16" route="r4773" type="CarDefault" departLane="random" />
	<vehicle id="v971" depart="162.96" route="r4772" type="CarDefault" departLane="random" />
	<vehicle id="v127" depart="163.26" route="r4771" type="CarDefault" departLane="random" />
	<vehicle id="v128" depart="167.44" route="r4771" type="CarDefault" departLane="random" />
	<vehicle id="v1948" depart="170.27" route="r4773" type="CarDefault" departLane="random" />
	<vehicle id="v972" depart="170.37" route="r4772" type="CarDefault" departLane="random" />
	<vehicle id="v129" depart="171.63" route="r4771" type="CarDefault" departLane="random" />
	<vehicle id="v3" depart="175" route="r4771" type="CarDefault" departLane="random" />
	<vehicle id="v130" depart="175.81" route="r4771" type="CarDefault" departLane="random" />
	<vehicle id="v973" depart="177.78" route="r4772" type="CarDefault" departLane="random" />
	<vehicle id="v1949" depart="178.38" route="r4773" type="CarDefault" departLane="random" />
	<vehicle id="v131" depart="180.0" route="r4771" type="CarDefault" departLane="random" />
	<vehicle id="v4" depart="183" route="r4771" type="CarDefault" departLane="random" />
	<vehicle id="v132" depart="184.19" route="r4771" type="CarDefault" departLane="random" />
	<vehicle id="v974" depart="185.19" route="r4772" type="CarDefault" departLane="random" />
	<vehicle id="v1950" depart="186.49" route="r4773" type="CarDefault" departLane="random" />
	<vehicle id="v133" depart="188.37" route="r4771" type="CarDefault" departLane="random" />
	<vehicle id="v134" depart="192.56" route="r4771" type="CarDefault" departLane="random" />
	<vehicle id="v975" depart="192.59" route="r4772" type="CarDefault" departLane="random" />
	<vehicle id="v1951" depart="194.59" route="r4773" type="CarDefault" departLane="random" />
	<vehicle id="v135" depart="196.74" route="r4771" type="CarDefault" departLane="random" />
	<vehicle id="v976" depart="200.0" route="r4772" type="CarDefault" departLane="random" />
	<vehicle id="v136" depart="200.93" route="r4771" type="CarDefault" departLane="random" />
	<vehicle id="v1952" depart="202.7" route="r4773" type="CarDefault" departLane="random" />
	<vehicle id="v5" depart="203" route="r4771" type="CarDefault" departLane="random" />
	<vehicle id="v137" depart="205.12" route="r4771" type="CarDefault" departLane="random" />
	<vehicle id="v977" depart="207.41" route="r4772" type="CarDefault" departLane="random" />
	<vehicle id="v138" depart="209.3" route="r4771" type="CarDefault" departLane="random" />
	<vehicle id="v1953" depart="210.81" route="r4773" type="CarDefault" departLane="random" />
	<vehicle id="v139" depart="213.49" route="r4771" type="CarDefault" departLane="random" />
	<vehicle id="v978" depart="214.81" route="r4772" type="CarDefault" departLane="random" />
	<vehicle id="v140" depart="217.67" route="r4771" type="CarDefault" departLane="random" />
	<vehicle id="v1954" depart="218.92" route="r4773" type="CarDefault" departLane="random" />
	<vehicle id="v141" depart="221.86" route="r4771" type="CarDefault" departLane="random" />
	<vehicle id="v979" depart="222.22" route="r4772" type="CarDefault" departLane="random" />
	<vehicle id="v142" depart="226.05" route="r4771" type="CarDefault" departLane="random" />
	<vehicle id="v1955" depart="227.03" route="r4773" type="CarDefault" departLane="random" />
	<vehicle id="v980" depart="229.63" route="r4772" type="CarDefault" departLane="random" />
	<vehicle id="v143" depart="230.23" route="r4771" type="CarDefault" departLane="random" />
	<vehicle id="v144" depart="234.42" route="r4771" type="CarDefault" departLane="random" />
	<vehicle id="v1956" depart="235.14" route="r4773" type="CarDefault" departLane="random" />
	<vehicle id="v981" depart="237.04" route="r4772" type="CarDefault" departLane="random" />
	<vehicle id="v145" depart="238.6" route="r4771" type="CarDefault" departLane="random" />
	<vehicle id="v146" depart="242.79" route="r4771" type="CarDefault" departLane="random" />
	<vehicle id="v1957" depart="243.24" route="r4773" type="CarDefault" departLane="random" />
	<vehicle id="v982" depart="244.44" route="r4772" type="CarDefault" departLane="random" />
	<vehicle id="v6" depart="245" route="r4771" type="CarDefault" departLane="random" />
	<vehicle id="v147" depart="246.98" route="r4771" type="CarDefault" departLane="random" />
	<vehicle id="v148" depart="251.16" route="r4771" type="CarDefault" departLane="random" />
	<vehicle id="v1958" depart="251.35" route="r4773" type="CarDefault" departLane="random" />
	<vehicle id="v983" depart="251.85" route="r4772" type="CarDefault" departLane="random" />
	<vehicle id="v149" depart="255.35" route="r4771" type="CarDefault" departLane="random" />
	<vehicle id="v984" depart="259.26" route="r4772" type="CarDefault" departLane="random" />
	<vehicle id="v1959" depart="259.46" route="r4773" type="CarDefault" departLane="random" />
	<vehicle id="v150" depart="259.53" route="r4771" type="CarDefault" departLane="random" />
	<vehicle id="v151" depart="263.72" route="r4771" type="CarDefault" departLane="random" />
	<vehicle id="v985" depart="266.67" route="r4772" type="CarDefault" departLane="random" />
	<vehicle id="v1960" depart="267.57" route="r4773" type="CarDefault" departLane="random" />
	<vehicle id="v152" depart="267.91" route="r4771" type="CarDefault" departLane="random" />
	<vehicle id="v153" depart="272.09" route="r4771" type="CarDefault" departLane="random" />
	<vehicle id="v986" depart="274.07" route="r4772" type="CarDefault" departLane="random" />
	<vehicle id="v1961" depart="275.68" route="r4773" type="CarDefault" departLane="random" />
	<vehicle id="v7" depart="276" route="r4771" type="CarDefault" departLane="random" />
	<vehicle id="v154" depart="276.28" route="r4771" type="CarDefault" departLane="random" />
	<vehicle id="v155" depart="280.47" route="r4771" type="CarDefault" departLane="random" />
	<vehicle id="v987" depart="281.48" route="r4772" type="CarDefault" departLane="random" />
	<vehicle id="v1962" depart="283.78" route="r4773" type="CarDefault" departLane="random" />
	<vehicle id="v156" depart="284.65" route="r4771" type="CarDefault" departLane="random" />
	<vehicle id="v157" depart="288.84" route="r4771" type="CarDefault" departLane="random" />
	<vehicle id="v988" depart="288.89" route="r4772" type="CarDefault" departLane="random" />
	<vehicle id="v1963" depart="291.89" route="r4773" type="CarDefault" departLane="random" />
	<vehicle id="v158" depart="293.02" route="r4771" type="CarDefault" departLane="random" />
	<vehicle id="v989" depart="296.3" route="r4772" type="CarDefault" departLane="random" />
	<vehicle id="v159" depart="297.21" route="r4771" type="CarDefault" departLane="random" />
	<vehicle id="v1964" depart="300.0" route="r4773" type="CarDefault" departLane="random" />
	<vehicle id="v160" depart="301.4" route="r4771" type="CarDefault" departLane="random" />
	<vehicle id="v990" depart="303.7" route="r4772" type="CarDefault" departLane="random" />
	<vehicle id="v161" depart="305.58" route="r4771" type="CarDefault" departLane="random" />
	<vehicle id="v1965" depart="308.11" route="r4773" type="CarDefault" departLane="random" />
	<vehicle id="v162" depart="309.77" route="r4771" type="CarDefault" departLane="random" />
	<vehicle id="v991" depart="311.11" route="r4772" type="CarDefault" departLane="random" />
	<vehicle id="v163" depart="313.95" route="r4771" type="CarDefault" departLane="random" />
	<vehicle id="v1966" depart="316.22" route="r4773" type="CarDefault" departLane="random" />
	<vehicle id="v164" depart="318.14" route="r4771" type="CarDefault" departLane="random" />
	<vehicle id="v992" depart="318.52" route="r4772" type="CarDefault" departLane="random" />
	<vehicle id="v165" depart="322.33" route="r4771" type="CarDefault" departLane="random" />
	<vehicle id="v1967" depart="324.32" route="r4773" type="CarDefault" departLane="random" />
	<vehicle id="v993" depart="325.93" route="r4772" type="CarDefault" departLane="random" />
	<vehicle id="v166" depart="326.51" route="r4771" type="CarDefault" departLane="random" />
	<vehicle id="v167" depart="330.7" route="r4771" type="CarDefault" departLane="random" />
	<vehicle id="v1968" depart="332.43" route="r4773" type="CarDefault" departLane="random" />
	<vehicle id="v994" depart="333.33" route="r4772" type="CarDefault" departLane="random" />
	<vehicle id="v168" depart="334.88" route="r4771" type="CarDefault" departLane="random" />
	<vehicle id="v169" depart="339.07" route="r4771" type="CarDefault" departLane="random" />
	<vehicle id="v1969" depart="340.54" route="r4773" type="CarDefault" departLane="random" />
	<vehicle id="v995" depart="340.74" route="r4772" type="CarDefault" departLane="random" />
	<vehicle id="v170" depart="343.26" route="r4771" type="CarDefault" departLane="random" />
	<vehicle id="v171" depart="347.44" route="r4771" type="CarDefault" departLane="random" />
	<vehicle id="v996" depart="348.15" route="r4772" type="CarDefault" departLane="random" />
	<vehicle id="v1970" depart="348.65" route="r4773" type="CarDefault" departLane="random" />
	<vehicle id="v172" depart="351.63" route="r4771" type="CarDefault" departLane="random" />
	<vehicle id="v997" depart="355.56" route="r4772" type="CarDefault" departLane="random" />
	<vehicle id="v173" depart="355.81" route="r4771" type="CarDefault" departLane="random" />
	<vehicle id="v1971" depart="356.76" route="r4773" type="CarDefault" departLane="random" />
	<vehicle id="v174" depart="360.0" route="r4771" type="CarDefault" departLane="random" />
	<vehicle id="v998" depart="362.96" route="r4772" type="CarDefault" departLane="random" />
	<vehicle id="v175" depart="364.19" route="r4771" type="CarDefault" departLane="random" />
	<vehicle id="v1972" depart="364.86" route="r4773" type="CarDefault" departLane="random" />
	<vehicle id="v8" depart="366" route="r4771" type="CarDefault" departLane="random" />
	<vehicle id="v176" depart="368.37" route="r4771" type="CarDefault" departLane="random" />
	<vehicle id="v999" depart="370.37" route="r4772" type="CarDefault" departLane="random" />
	<vehicle id="v177" depart="372.56" route="r4771" type="CarDefault" departLane="random" />
	<vehicle id="v1973" depart="372.97" route="r4773" type="CarDefault" departLane="random" />
	<vehicle id="v178" depart="376.74" route="r4771" type="CarDefault" departLane="random" />
	<vehicle id="v1000" depart="377.78" route="r4772" type="CarDefault" departLane="random" />
	<vehicle id="v179" depart="380.93" route="r4771" type="CarDefault" departLane="random" />
	<vehicle id="v1974" depart="381.08" route="r4773" type="CarDefault" departLane="random" />
	<vehicle id="v180" depart="385.12" route="r4771" type="CarDefault" departLane="random" />
	<vehicle id="v1001" depart="385.19" route="r4772" type="CarDefault" departLane="random" />
	<vehicle id="v1975" depart="389.19" route="r4773" type="CarDefault" departLane="random" />
	<vehicle id="v181" depart="389.3" route="r4771" type="CarDefault" departLane="random" />
	<vehicle id="v1002" depart="392.59" route="r4772" type="CarDefault" departLane="random" />
	<vehicle id="v182" depart="393.49" route="r4771" type="CarDefault" departLane="random" />
	<vehicle id="v1976" depart="397.3" route="r4773" type="CarDefault" departLane="random" />
	<vehicle id="v183" depart="397.67" route="r4771" type="CarDefault" departLane="random" />
	<vehicle id="v1003" depart="400.0" route="r4772" type="CarDefault" departLane="random" />
	<vehicle id="v9" depart="401" route="r4771" type="CarDefault" departLane="random" />
	<vehicle id="v184" depart="401.86" route="r4771" type="CarDefault" departLane="random" />
	<vehicle id="v1977" depart="405.41" route="r4773" type="CarDefault" departLane="random" />
	<vehicle id="v185" depart="406.05" route="r4771" type="CarDefault" departLane="random" />
	<vehicle id="v1004" depart="407.41" route="r4772" type="CarDefault" departLane="random" />
	<vehicle id="v186" depart="410.23" route="r4771" type="CarDefault" departLane="random" />
	<vehicle id="v1978" depart="413.51" route="r4773" type="CarDefault" departLane="random" />
	<vehicle id="v187" depart="414.42" route="r4771" type="CarDefault" departLane="random" />
	<vehicle id="v1005" depart="414.81" route="r4772" type="CarDefault" departLane="random" />
	<vehicle id="v188" depart="418.6" route="r4771" type="CarDefault" departLane="random" />
	<vehicle id="v1979" depart="421.62" route="r4773" type="CarDefault" departLane="random" />
	<vehicle id="v1006" depart="422.22" route="r4772" type="CarDefault" departLane="random" />
	<vehicle id="v189" depart="422.79" route="r4771" type="CarDefault" departLane="random" />
	<vehicle id="v190" depart="426.98" route="r4771" type="CarDefault" departLane="random" />
	<vehicle id="v1007" depart="429.63" route="r4772" type="CarDefault" departLane="random" />
	<vehicle id="v1980" depart="429.73" route="r4773" type="CarDefault" departLane="random" />
	<vehicle id="v191" depart="431.16" route="r4771" type="CarDefault" departLane="random" />
	<vehicle id="v192" depart="435.35" route="r4771" type="CarDefault" departLane="random" />
	<vehicle id="v1008" depart="437.04" route="r4772" type="CarDefault" departLane="random" />
	<vehicle id="v1981" depart="437.84" route="r4773" type="CarDefault" departLane="random" />
	<vehicle id="v193" depart="439.53" route="r4771" type="CarDefault" departLane="random" />
	<vehicle id="v194" depart="443.72" route="r4771" type="CarDefault" departLane="random" />
	<vehicle id="v1009" depart="444.44" route="r4772" type="CarDefault" departLane="random" />
	<vehicle id="v1982" depart="445.95" route="r4773" type="CarDefault" departLane="random" />
	<vehicle id="v195" depart="447.91" route="r4771" type="CarDefault" departLane="random" />
	<vehicle id="v1010" depart="451.85" route="r4772" type="CarDefault" departLane="random" />
	<vehicle id="v196" depart="452.09" route="r4771" type="CarDefault" departLane="random" />
	<vehicle id="v1983" depart="454.05" route="r4773" type="CarDefault" departLane="random" />
	<vehicle id="v197" depart="456.28" route="r4771" type="CarDefault" departLane="random" />
	<vehicle id="v1011" depart="459.26" route="r4772" type="CarDefault" departLane="random" />
	<vehicle id="v198" depart="460.47" route="r4771" type="CarDefault" departLane="random" />
	<vehicle id="v1984" depart="462.16" route="r4773" type="CarDefault" departLane="random" />
	<vehicle id="v199" depart="464.65" route="r4771" type="CarDefault" departLane="random" />
	<vehicle id="v1012" depart="466.67" route="r4772" type="CarDefault" departLane="random" />
	<vehicle id="v200" depart="468.84" route="r4771" type="CarDefault" departLane="random" />
	<vehicle id="v1985" depart="470.27" route="r4773" type="CarDefault" departLane="random" />
	<vehicle id="v201" depart="473.02" route="r4771" type="CarDefault" departLane="random" />
	<vehicle id="v1013" depart="474.07" route="r4772" type="CarDefault" departLane="random" />
	<vehicle id="v202" depart="477.21" route="r4771" type="CarDefault" departLane="random" />
	<vehicle id="v1986" depart="478.38" route="r4773" type="CarDefault" departLane="random" />
	<vehicle id="v203" depart="481.4" route="r4771" type="CarDefault" departLane="random" />
	<vehicle id="v1014" depart="481.48" route="r4772" type="CarDefault" departLane="random" />
	<vehicle id="v204" depart="485.58" route="r4771" type="CarDefault" departLane="random" />
	<vehicle id="v1987" depart="486.49" route="r4773" type="CarDefault" departLane="random" />
	<vehicle id="v1015" depart="488.89" route="r4772" type="CarDefault" departLane="random" />
	<vehicle id="v205" depart="489.77" route="r4771" type="CarDefault" departLane="random" />
	<vehicle id="v206" depart="493.95" route="r4771" type="CarDefault" departLane="random" />
	<vehicle id="v1988" depart="494.59" route="r4773" type="CarDefault" departLane="random" />
	<vehicle id="v1016" depart="496.3" route="r4772" type="CarDefault" departLane="random" />
	<vehicle id="v207" depart="498.14" route="r4771" type="CarDefault" departLane="random" />
	<vehicle id="v208" depart="502.33" route="r4771" type="CarDefault" departLane="random" />
	<vehicle id="v1989" depart="502.7" route="r4773" type="CarDefault" departLane="random" />
	<vehicle id="v1017" depart="503.7" route="r4772" type="CarDefault" departLane="random" />
	<vehicle id="v209" depart="506.51" route="r4771" type="CarDefault" departLane="random" />
	<vehicle id="v210" depart="510.7" route="r4771" type="CarDefault" departLane="random" />
	<vehicle id="v1990" depart="510.81" route="r4773" type="CarDefault" departLane="random" />
	<vehicle id="v1018" depart="511.11" route="r4772" type="CarDefault" departLane="random" />
	<vehicle id="v10" depart="514" route="r4771" type="CarDefault" departLane="random" />
	<vehicle id="v211" depart="514.88" route="r4771" type="CarDefault" departLane="random" />
	<vehicle id="v1019" depart="518.52" route="r4772" type="CarDefault" departLane="random" />
	<vehicle id="v1991" depart="518.92" route="r4773" type="CarDefault" departLane="random" />
	<vehicle id="v212" depart="519.07" route="r4771" type="CarDefault" departLane="random" />
	<vehicle id="v213" depart="523.26" route="r4771" type="CarDefault" departLane="random" />
	<vehicle id="v1020" depart="525.93" route="r4772" type="CarDefault" departLane="random" />
	<vehicle id="v1992" depart="527.03" route="r4773" type="CarDefault" departLane="random" />
	<vehicle id="v214" depart="527.44" route="r4771" type="CarDefault" departLane="random" />
	<vehicle id="v215" depart="531.63" route="r4771" type="CarDefault" departLane="random" />
	<vehicle id="v1021" depart="533.33" route="r4772" type="CarDefault" departLane="random" />
	<vehicle id="v1993" depart="535.14" route="r4773" type="CarDefault" departLane="random" />
	<vehicle id="v216" depart="535.81" route="r4771" type="CarDefault" departLane="random" />
	<vehicle id="v217" depart="540.0" route="sr1064" type="CarDefault" departLane="random" />
	<vehicle id="v1022" depart="540.74" route="sr1065" type="CarDefault" departLane="random" />
	<vehicle id="v1994" depart="543.24" route="sr1066" type="CarDefault" departLane="random" />
	<vehicle id="v218" depart="544.19" route="sr1064" type="CarDefault" departLane="random" />
	<vehicle id="v1023" depart="548.15" route="sr1065" type="CarDefault" departLane="random" />
	<vehicle id="v219" depart="548.37" route="sr1064" type="CarDefault" departLane="random" />
	<vehicle id="v1995" depart="551.35" route="sr1066" type="CarDefault" departLane="random" />
	<vehicle id="v220" depart="552.56" route="sr1064" type="CarDefault" departLane="random" />
	<vehicle id="v1024" depart="555.56" route="sr1065" type="CarDefault" departLane="random" />
	<vehicle id="v221" depart="556.74" route="sr1064" type="CarDefault" departLane="random" />
	<vehicle id="v1996" depart="559.46" route="sr1066" type="CarDefault" departLane="random" />
	<vehicle id="v222" depart="560.93" route="sr1064" type="CarDefault" departLane="random" />
	<vehicle id="v1025" depart="562.96" route="sr1065" type="CarDefault" departLane="random" />
	<vehicle id="v223" depart="565.12" route="sr1064" type="CarDefault" departLane="random" />
	<vehicle id="v1997" depart="567.57" route="sr1066" type="CarDefault" departLane="random" />
	<vehicle id="v11" depart="568" route="sr1064" type="CarDefault" departLane="random" />
	<vehicle id="v224" depart="569.3" route="sr1064" type="CarDefault" departLane="random" />
	<vehicle id="v1026" depart="570.37" route="r4772" type="CarDefault" departLane="random" />
	<vehicle id="v225" depart="573.49" route="r4771" type="CarDefault" departLane="random" />
	<vehicle id="v1998" depart="575.68" route="r4773" type="CarDefault" departLane="random" />
	<vehicle id="v226" depart="577.67" route="r4771" type="CarDefault" departLane="random" />
	<vehicle id="v1027" depart="577.78" route="r4772" type="CarDefault" departLane="random" />
	<vehicle id="v227" depart="581.86" route="r4771" type="CarDefault" departLane="random" />
	<vehicle id="v1999" depart="583.78" route="r4773" type="CarDefault" departLane="random" />
	<vehicle id="v1028" depart="585.19" route="r4772" type="CarDefault" departLane="random" />
	<vehicle id="v228" depart="586.05" route="r4771" type="CarDefault" departLane="random" />
	<vehicle id="v229" depart="590.23" route="r4771" type="CarDefault" departLane="random" />
	<vehicle id="v2000" depart="591.89" route="r4773" type="CarDefault" departLane="random" />
	<vehicle id="v1029" depart="592.59" route="r4772" type="CarDefault" departLane="random" />
	<vehicle id="v230" depart="594.42" route="r4771" type="CarDefault" departLane="random" />
	<vehicle id="v231" depart="598.6" route="r4771" type="CarDefault" departLane="random" />
	<vehicle id="v1030" depart="600.0" route="sr1065" type="CarDefault" departLane="random" />
	<vehicle id="v2001" depart="600.0" route="sr1066" type="CarDefault" departLane="random" />
	<vehicle id="v232" depart="602.79" route="sr1064" type="CarDefault" departLane="random" />
	<vehicle id="v1118" depart="603" route="sr1065" type="CarDefault" departLane="random" />
	<vehicle id="v233" depart="606.98" route="sr1064" type="CarDefault" departLane="random" />
	<vehicle id="v1031" depart="607.41" route="sr1065" type="CarDefault" departLane="random" />