<?xml version='1.0' encoding='utf-8'?>
<routes>
	<vType accel="3.0" decel="6.0" id="CarDefault" length="5.0" minGap="2.5" maxSpeed="50.0" sigma="0.5" />
	<route id="sr2168" edges="13 83 118 136 137 138 5 63 135 163 54 53" fromJunction="69" toJunction="81" />
	<route id="r2651" edges="13 83 118 136 137 138 5 44 73 105 54 53" fromJunction="69" toJunction="81" />
	<route id="r2652" edges="55 169 146 153 105 1 164 104 40 70 144" fromJunction="83" toJunction="70" />
	<route id="sr2167" edges="15 139 97 119 117 120 136 137 138 5 9 21 32 31 182 75 78 79" fromJunction="15" toJunction="73" />
	<route id="r2653" edges="15 139 97 119 117 120 25 11 52 51 21 32 31 182 75 78 79" fromJunction="15" toJunction="73" />
	<route id="sr2169" edges="55 169 130 131 56 73 105 1 30 50 157 154 125 143 144" fromJunction="83" toJunction="70" />
	<route id="sr2166" edges="22 12 112 19 8 0 32 31 182 87 88 89 179 178" fromJunction="78" toJunction="19" />
	<vehicle id="v7268" depart="0.0" route="sr2166" type="CarDefault" departLane="random" />
	<vehicle id="v7992" depart="0.0" route="r2653" type="CarDefault" departLane="random" />
	<vehicle id="v8841" depart="0.0" route="r2651" type="CarDefault" departLane="random" />
	<vehicle id="v9845" depart="0.0" route="r2652" type="CarDefault" departLane="random" />
	<vehicle id="v8842" depart="3.59" route="r2651" type="CarDefault" departLane="random" />
	<vehicle id="v7993" depart="4.69" route="r2653" type="CarDefault" departLane="random" />
	<vehicle id="v7269" depart="5.71" route="sr2166" type="CarDefault" departLane="random" />
	<vehicle id="v8843" depart="7.18" route="r2651" type="CarDefault" departLane="random" />
	<vehicle id="v9846" depart="7.41" route="r2652" type="CarDefault" departLane="random" />
	<vehicle id="v7994" depart="9.39" route="r2653" type="CarDefault" departLane="random" />
	<vehicle id="v8844" depart="10.77" route="r2651" type="CarDefault" departLane="random" />
	<vehicle id="v7270" depart="11.41" route="sr2166" type="CarDefault" departLane="random" />
	<vehicle id="v7995" depart="14.08" route="r2653" type="CarDefault" departLane="random" />
	<vehicle id="v8845" depart="14.36" route="r2651" type="CarDefault" departLane="random" />
	<vehicle id="v9847" depart="14.81" route="r2652" type="CarDefault" departLane="random" />
	<vehicle id="v7271" depart="17.12" route="sr2166" type="CarDefault" departLane="random" />
	<vehicle id="v8846" depart="17.95" route="r2651" type="CarDefault" departLane="random" />
	<vehicle id="v7996" depart="18.77" route="r2653" type="CarDefault" departLane="random" />
	<vehicle id="v8847" depart="21.54" route="r2651" type="CarDefault" departLane="random" />
	<vehicle id="v9848" depart="22.22" route="r2652" type="CarDefault" departLane="random" />
	<vehicle id="v7272" depart="22.82" route="sr2166" type="CarDefault" departLane="random" />
	<vehicle id="v7997" depart="23.47" route="r2653" type="CarDefault" departLane="random" />
	<vehicle id="v8848" depart="25.12" route="r2651" type="CarDefault" departLane="random" />
	<vehicle id="v7998" depart="28.16" route="r2653" type="CarDefault" departLane="random" />
	<vehicle id="v7273" depart="28.53" route="sr2166" type="CarDefault" departLane="random" />
	<vehicle id="v8849" depart="28.71" route="r2651" type="CarDefault" departLane="random" />
	<vehicle id="v9849" depart="29.63" route="r2652" type="CarDefault" departLane="random" />
	<vehicle id="v8850" depart="32.3" route="r2651" type="CarDefault" departLane="random" />
	<vehicle id="v7999" depart="32.86" route="r2653" type="CarDefault" departLane="random" />
	<vehicle id="v7274" depart="34.23" route="sr2166" type="CarDefault" departLane="random" />
	<vehicle id="v8851" depart="35.89" route="r2651" type="CarDefault" departLane="random" />
	<vehicle id="v8760" depart="37" route="r2651" type="CarDefault" departLane="random" />
	<vehicle id="v9850" depart="37.04" route="r2652" type="CarDefault" departLane="random" />
	<vehicle id="v8000" depart="37.55" route="r2653" type="CarDefault" departLane="random" />
	<vehicle id="v8852" depart="39.48" route="r2651" type="CarDefault" departLane="random" />
	<vehicle id="v7275" depart="39.94" route="sr2166" type="CarDefault" departLane="random" />
	<vehicle id="v8761" depart="42" route="r2651" type="CarDefault" departLane="random" />
	<vehicle id="v8001" depart="42.24" route="r2653" type="CarDefault" departLane="random" />
	<vehicle id="v8853" depart="43.07" route="r2651" type="CarDefault" departLane="random" />
	<vehicle id="v7900" depart="44" route="r2653" type="CarDefault" departLane="random" />
	<vehicle id="v9851" depart="44.44" route="r2652" type="CarDefault" departLane="random" />
	<vehicle id="v7276" depart="45.64" route="sr2166" type="CarDefault" departLane="random" />
	<vehicle id="v8854" depart="46.66" route="r2651" type="CarDefault" departLane="random" />
	<vehicle id="v8002" depart="46.94" route="r2653" type="CarDefault" departLane="random" />
	<vehicle id="v8855" depart="50.25" route="r2651" type="CarDefault" departLane="random" />
	<vehicle id="v7277" depart="51.35" route="sr2166" type="CarDefault" departLane="random" />
	<vehicle id="v8003" depart="51.63" route="r2653" type="CarDefault" departLane="random" />
	<vehicle id="v9852" depart="51.85" route="r2652" type="CarDefault" departLane="random" />
	<vehicle id="v8856" depart="53.84" route="r2651" type="CarDefault" departLane="random" />
	<vehicle id="v8004" depart="56.32" route="r2653" type="CarDefault" departLane="random" />
	<vehicle id="v7278" depart="57.05" route="sr2166" type="CarDefault" departLane="random" />
	<vehicle id="v8857" depart="57.43" route="r2651" type="CarDefault" departLane="random" />
	<vehicle id="v9853" depart="59.26" route="r2652" type="CarDefault" departLane="random" />
	<vehicle id="v8005" depart="61.02" route="r2653" type="CarDefault" departLane="random" />
	<vehicle id="v8858" depart="61.02" route="r2651" type="CarDefault" departLane="random" />
	<vehicle id="v7279" depart="62.76" route="sr2166" type="CarDefault" departLane="random" />
	<vehicle id="v8859" depart="64.61" route="r2651" type="CarDefault" departLane="random" />
	<vehicle id="v8006" depart="65.71" route="r2653" type="CarDefault" departLane="random" />
	<vehicle id="v9854" depart="66.67" route="r2652" type="CarDefault" departLane="random" />
	<vehicle id="v8860" depart="68.2" route="r2651" type="CarDefault" departLane="random" />
	<vehicle id="v7280" depart="68.46" route="sr2166" type="CarDefault" departLane="random" />
	<vehicle id="v8007" depart="70.4" route="r2653" type="CarDefault" departLane="random" />
	<vehicle id="v8861" depart="71.78" route="r2651" type="CarDefault" departLane="random" />
	<vehicle id="v7901" depart="74" route="r2653" type="CarDefault" departLane="random" />
	<vehicle id="v9855" depart="74.07" route="r2652" type="CarDefault" departLane="random" />
	<vehicle id="v7281" depart="74.17" route="sr2166" type="CarDefault" departLane="random" />
	<vehicle id="v8008" depart="75.1" route="r2653" type="CarDefault" departLane="random" />
	<vehicle id="v8862" depart="75.37" route="r2651" type="CarDefault" departLane="random" />
	<vehicle id="v8863" depart="78.96" route="r2651" type="CarDefault" departLane="random" />
	<vehicle id="v8009" depart="79.79" route="r2653" type="CarDefault" departLane="random" />
	<vehicle id="v7282" depart="79.87" route="sr2166" type="CarDefault" departLane="random" />
	<vehicle id="v9856" depart="81.48" route="r2652" type="CarDefault" departLane="random" />
	<vehicle id="v8864" depart="82.55" route="r2651" type="CarDefault" departLane="random" />
	<vehicle id="v8010" depart="84.49" route="r2653" type="CarDefault" departLane="random" />
	<vehicle id="v7283" depart="85.58" route="sr2166" type="CarDefault" departLane="random" />
	<vehicle id="v8865" depart="86.14" route="r2651" type="CarDefault" departLane="random" />
	<vehicle id="v9857" depart="88.89" route="r2652" type="CarDefault" departLane="random" />
	<vehicle id="v7902" depart="89" route="r2653" type="CarDefault" departLane="random" />
	<vehicle id="v8011" depart="89.18" route="r2653" type="CarDefault" departLane="random" />
	<vehicle id="v8866" depart="89.73" route="r2651" type="CarDefault" departLane="random" />
	<vehicle id="v7284" depart="91.28" route="sr2166" type="CarDefault" departLane="random" />
	<vehicle id="v8867" depart="93.32" route="r2651" type="CarDefault" departLane="random" />
	<vehicle id="v8012" depart="93.87" route="r2653" type="CarDefault" departLane="random" />
	<vehicle id="v9858" depart="96.3" route="r2652" type="CarDefault" departLane="random" />
	<vehicle id="v8868" depart="96.91" route="r2651" type="CarDefault" departLane="random" />
	<vehicle id="v7285" depart="96.99" route="sr2166" type="CarDefault" departLane="random" />
	<vehicle id="v8013" depart="98.57" route="r2653" type="CarDefault" departLane="random" />
	<vehicle id="v8869" depart="100.5" route="r2651" type="CarDefault" departLane="random" />
	<vehicle id="v7286" depart="102.69" route="sr2166" type="CarDefault" departLane="random" />
	<vehicle id="v8014" depart="103.26" route="r2653" type="CarDefault" departLane="random" />
	<vehicle id="v9859" depart="103.7" route="r2652" type="CarDefault" departLane="random" />
	<vehicle id="v8870" depart="104.09" route="r2651" type="CarDefault" departLane="random" />
	<vehicle id="v7176" depart="106" route="sr2166" type="CarDefault" departLane="random" />
	<vehicle id="v8871" depart="107.68" route="r2651" type="CarDefault" departLane="random" />
	<vehicle id="v8015" depart="107.95" route="r2653" type="CarDefault" departLane="random" />
	<vehicle id="v7287" depart="108.4" route="sr2166" type="CarDefault" departLane="random" />
	<vehicle id="v9860" depart="111.11" route="r2652" type="CarDefault" departLane="random" />
	<vehicle id="v8872" depart="111.27" route="r2651" type="CarDefault" departLane="random" />
	<vehicle id="v8016" depart="112.65" route="r2653" type="CarDefault" departLane="random" />
	<vehicle id="v7288" depart="114.1" route="sr2166" type="CarDefault" departLane="random" />
	<vehicle id="v8873" depart="114.86" route="r2651" type="CarDefault" departLane="random" />
	<vehicle id="v8017" depart="117.34" route="r2653" type="CarDefault" departLane="random" />
	<vehicle id="v8874" depart="118.44" route="r2651" type="CarDefault" departLane="random" />
	<vehicle id="v9861" depart="118.52" route="r2652" type="CarDefault" departLane="random" />
	<vehicle id="v7289" depart="119.81" route="sr2166" type="CarDefault" departLane="random" />
	<vehicle id="v8018" depart="122.03" route="r2653" type="CarDefault" departLane="random" />
	<vehicle id="v8875" depart="122.03" route="r2651" type="CarDefault" departLane="random" />
	<vehicle id="v7290" depart="125.52" route="sr2166" type="CarDefault" departLane="random" />
	<vehicle id="v8876" depart="125.62" route="r2651" type="CarDefault" departLane="random" />
	<vehicle id="v9862" depart="125.93" route="r2652" type="CarDefault" departLane="random" />
	<vehicle id="v8019" depart="126.73" route="r2653" type="CarDefault" departLane="random" />
	<vehicle id="v8877" depart="129.21" route="r2651" type="CarDefault" departLane="random" />
	<vehicle id="v7291" depart="131.22" route="sr2166" type="CarDefault" departLane="random" />
	<vehicle id="v8020" depart="131.42" route="r2653" type="CarDefault" departLane="random" />
	<vehicle id="v8878" depart="132.8" route="r2651" type="CarDefault" departLane="random" />
	<vehicle id="v9863" depart="133.33" route="r2652" type="CarDefault" departLane="random" />
	<vehicle id="v7177" depart="135" route="sr2166" type="CarDefault" departLane="random" />
	<vehicle id="v8021" depart="136.11" route="r2653" type="CarDefault" departLane="random" />
	<vehicle id="v8879" depart="136.39" route="r2651" type="CarDefault" departLane="random" />
	<vehicle id="v7292" depart="136.93" route="sr2166" type="CarDefault" departLane="random" />
	<vehicle id="v8880" depart="139.98" route="r2651" type="CarDefault" departLane="random" />
	<vehicle id="v9864" depart="140.74" route="r2652" type="CarDefault" departLane="random" />
	<vehicle id="v8022" depart="140.81" route="r2653" type="CarDefault" departLane="random" />
	<vehicle id="v7293" depart="142.63" route="sr2166" type="CarDefault" departLane="random" />
	<vehicle id="v8881" depart="143.57" route="r2651" type="CarDefault" departLane="random" />
	<vehicle id="v8023" depart="145.5" route="r2653" type="CarDefault" departLane="random" />
	<vehicle id="v8882" depart="147.16" route="r2651" type="CarDefault" departLane="random" />
	<vehicle id="v9865" depart="148.15" route="r2652" type="CarDefault" departLane="random" />
	<vehicle id="v7294" depart="148.34" route="sr2166" type="CarDefault" departLane="random" />
	<vehicle id="v7178" depart="149" route="sr2166" type="CarDefault" departLane="random" />
	<vehicle id="v8024" depart="150.2" route="r2653" type="CarDefault" departLane="random" />
	<vehicle id="v8883" depart="150.75" route="r2651" type="CarDefault" departLane="random" />
	<vehicle id="v7295" depart="154.04" route="sr2166" type="CarDefault" departLane="random" />
	<vehicle id="v8884" depart="154.34" route="r2651" type="CarDefault" departLane="random" />
	<vehicle id="v8025" depart="154.89" route="r2653" type="CarDefault" departLane="random" />
	<vehicle id="v7903" depart="155" route="r2653" type="CarDefault" departLane="random" />
	<vehicle id="v9866" depart="155.56" route="r2652" type="CarDefault" departLane="random" />
	<vehicle id="v8885" depart="157.93" route="r2651" type="CarDefault" departLane="random" />
	<vehicle id="v8026" depart="159.58" route="r2653" type="CarDefault" departLane="random" />
	<vehicle id="v7296" depart="159.75" route="sr2166" type="CarDefault" departLane="random" />
	<vehicle id="v8886" depart="161.52" route="r2651" type="CarDefault" departLane="random" />
	<vehicle id="v9867" depart="162.96" route="r2652" type="CarDefault" departLane="random" />
	<vehicle id="v8027" depart="164.28" route="r2653" type="CarDefault" departLane="random" />
	<vehicle id="v8887" depart="165.1" route="r2651" type="CarDefault" departLane="random" />
	<vehicle id="v7297" depart="165.45" route="sr2166" type="CarDefault" departLane="random" />
	<vehicle id="v8888" depart="168.69" route="r2651" type="CarDefault" departLane="random" />
	<vehicle id="v8028" depart="168.97" route="r2653" type="CarDefault" departLane="random" />
	<vehicle id="v7179" depart="169" route="sr2166" type="CarDefault" departLane="random" />
	<vehicle id="v9868" depart="170.37" route="r2652" type="CarDefault" departLane="random" />
	<vehicle id="v7298" depart="171.16" route="sr2166" type="CarDefault" departLane="random" />
	<vehicle id="v8889" depart="172.28" route="r2651" type="CarDefault" departLane="random" />
	<vehicle id="v8029" depart="173.66" route="r2653" type="CarDefault" departLane="random" />
	<vehicle id="v7904" depart="175" route="r2653" type="CarDefault" departLane="random" />
	<vehicle id="v8890" depart="175.87" route="r2651" type="CarDefault" departLane="random" />
	<vehicle id="v7299" depart="176.86" route="sr2166" type="CarDefault" departLane="random" />
	<vehicle id="v9869" depart="177.78" route="r2652" type="CarDefault" departLane="random" />
	<vehicle id="v8030" depart="178.36" route="r2653" type="CarDefault" departLane="random" />
	<vehicle id="v8891" depart="179.46" route="r2651" type="CarDefault" departLane="random" />
	<vehicle id="v7300" depart="182.57" route="sr2166" type="CarDefault" departLane="random" />
	<vehicle id="v8031" depart="183.05" route="r2653" type="CarDefault" departLane="random" />
	<vehicle id="v8892" depart="183.05" route="r2651" type="CarDefault" departLane="random" />
	<vehicle id="v9870" depart="185.19" route="r2652" type="CarDefault" departLane="random" />
	<vehicle id="v8762" depart="186" route="r2651" type="CarDefault" departLane="random" />
	<vehicle id="v8893" depart="186.64" route="r2651" type="CarDefault" departLane="random" />
	<vehicle id="v8032" depart="187.74" route="r2653" type="CarDefault" departLane="random" />
	<vehicle id="v7301" depart="188.27" route="sr2166" type="CarDefault" departLane="random" />
	<vehicle id="v8894" depart="190.23" route="r2651" type="CarDefault" departLane="random" />
	<vehicle id="v8033" depart="192.44" route="r2653" type="CarDefault" departLane="random" />
	<vehicle id="v9871" depart="192.59" route="r2652" type="CarDefault" departLane="random" />
	<vehicle id="v8895" depart="193.82" route="r2651" type="CarDefault" departLane="random" />
	<vehicle id="v7302" depart="193.98" route="sr2166" type="CarDefault" departLane="random" />
	<vehicle id="v8034" depart="197.13" route="r2653" type="CarDefault" departLane="random" />
	<vehicle id="v8896" depart="197.41" route="r2651" type="CarDefault" departLane="random" />
	<vehicle id="v7303" depart="199.68" route="sr2166" type="CarDefault" departLane="random" />
	<vehicle id="v9872" depart="200.0" route="r2652" type="CarDefault" departLane="random" />
	<vehicle id="v8897" depart="201.0" route="r2651" type="CarDefault" departLane="random" />
	<vehicle id="v8035" depart="201.83" route="r2653" type="CarDefault" departLane="random" />
	<vehicle id="v8898" depart="204.59" route="r2651" type="CarDefault" departLane="random" />
	<vehicle id="v7304" depart="205.39" route="sr2166" type="CarDefault" departLane="random" />
	<vehicle id="v8036" depart="206.52" route="r2653" type="CarDefault" departLane="random" />
	<vehicle id="v9873" depart="207.41" route="r2652" type="CarDefault" departLane="random" />
	<vehicle id="v7180" depart="208" route="sr2166" type="CarDefault" departLane="random" />
	<vehicle id="v8899" depart="208.18" route="r2651" type="CarDefault" departLane="random" />
	<vehicle id="v7305" depart="211.09" route="sr2166" type="CarDefault" departLane="random" />
	<vehicle id="v8037" depart="211.21" route="r2653" type="CarDefault" departLane="random" />
	<vehicle id="v8900" depart="211.76" route="r2651" type="CarDefault" departLane="random" />
	<vehicle id="v9874" depart="214.81" route="r2652" type="CarDefault" departLane="random" />
	<vehicle id="v8901" depart="215.35" route="r2651" type="CarDefault" departLane="random" />
	<vehicle id="v8038" depart="215.91" route="r2653" type="CarDefault" departLane="random" />
	<vehicle id="v7306" depart="216.8" route="sr2166" type="CarDefault" departLane="random" />
	<vehicle id="v8902" depart="218.94" route="r2651" type="CarDefault" departLane="random" />
	<vehicle id="v8039" depart="220.6" route="r2653" type="CarDefault" departLane="random" />
	<vehicle id="v9875" depart="222.22" route="r2652" type="CarDefault" departLane="random" />
	<vehicle id="v7307" depart="222.5" route="sr2166" type="CarDefault" departLane="random" />
	<vehicle id="v8903" depart="222.53" route="r2651" type="CarDefault" departLane="random" />
	<vehicle id="v7905" depart="224" route="r2653" type="CarDefault" departLane="random" />
	<vehicle id="v8040" depart="225.29" route="r2653" type="CarDefault" departLane="random" />
	<vehicle id="v8904" depart="226.12" route="r2651" type="CarDefault" departLane="random" />
	<vehicle id="v7308" depart="228.21" route="sr2166" type="CarDefault" departLane="random" />
	<vehicle id="v9876" depart="229.63" route="r2652" type="CarDefault" departLane="random" />
	<vehicle id="v8905" depart="229.71" route="r2651" type="CarDefault" departLane="random" />
	<vehicle id="v8041" depart="229.99" route="r2653" type="CarDefault" departLane="random" />
	<vehicle id="v8763" depart="230" route="r2651" type="CarDefault" departLane="random" />
	<vehicle id="v8906" depart="233.3" route="r2651" type="CarDefault" departLane="random" />
	<vehicle id="v7309" depart="233.91" route="sr2166" type="CarDefault" departLane="random" />
	<vehicle id="v8042" depart="234.68" route="r2653" type="CarDefault" departLane="random" />
	<vehicle id="v8907" depart="236.89" route="r2651" type="CarDefault" departLane="random" />
	<vehicle id="v9877" depart="237.04" route="r2652" type="CarDefault" departLane="random" />
	<vehicle id="v8043" depart="239.37" route="r2653" type="CarDefault" departLane="random" />
	<vehicle id="v7310" depart="239.62" route="sr2166" type="CarDefault" departLane="random" />
	<vehicle id="v8908" depart="240.48" route="r2651" type="CarDefault" departLane="random" />
	<vehicle id="v8044" depart="244.07" route="r2653" type="CarDefault" departLane="random" />
	<vehicle id="v8909" depart="244.07" route="r2651" type="CarDefault" departLane="random" />
	<vehicle id="v9878" depart="244.44" route="r2652" type="CarDefault" departLane="random" />
	<vehicle id="v7311" depart="245.32" route="sr2166" type="CarDefault" departLane="random" />
	<vehicle id="v7181" depart="247" route="sr2166" type="CarDefault" departLane="random" />
	<vehicle id="v8910" depart="247.66" route="r2651" type="CarDefault" departLane="random" />
	<vehicle id="v8045" depart="248.76" route="r2653" type="CarDefault" departLane="random" />
	<vehicle id="v7312" depart="251.03" route="sr2166" type="CarDefault" departLane="random" />
	<vehicle id="v8911" depart="251.25" route="r2651" type="CarDefault" departLane="random" />
	<vehicle id="v9879" depart="251.85" route="r2652" type="CarDefault" departLane="random" />
	<vehicle id="v8046" depart="253.46" route="r2653" type="CarDefault" departLane="random" />
	<vehicle id="v8912" depart="254.84" route="r2651" type="CarDefault" departLane="random" />
	<vehicle id="v7313" depart="256.74" route="sr2166" type="CarDefault" departLane="random" />
	<vehicle id="v8047" depart="258.15" route="r2653" type="CarDefault" departLane="random" />
	<vehicle id="v8913" depart="258.42" route="r2651" type="CarDefault" departLane="random" />
	<vehicle id="v9880" depart="259.26" route="r2652" type="CarDefault" departLane="random" />
	<vehicle id="v8914" depart="262.01" route="r2651" type="CarDefault" departLane="random" />
	<vehicle id="v7314" depart="262.44" route="sr2166" type="CarDefault" departLane="random" />
	<vehicle id="v8048" depart="262.84" route="r2653" type="CarDefault" departLane="random" />
	<vehicle id="v8915" depart="265.6" route="r2651" type="CarDefault" departLane="random" />
	<vehicle id="v9881" depart="266.67" route="r2652" type="CarDefault" departLane="random" />
	<vehicle id="v8049" depart="267.54" route="r2653" type="CarDefault" departLane="random" />
	<vehicle id="v7315" depart="268.15" route="sr2166" type="CarDefault" departLane="random" />
	<vehicle id="v8916" depart="269.19" route="r2651" type="CarDefault" departLane="random" />
	<vehicle id="v7182" depart="272" route="sr2166" type="CarDefault" departLane="random" />
	<vehicle id="v8050" depart="272.23" route="r2653" type="CarDefault" departLane="random" />
	<vehicle id="v8917" depart="272.78" route="r2651" type="CarDefault" departLane="random" />
	<vehicle id="v7316" depart="273.85" route="sr2166" type="CarDefault" departLane="random" />
	<vehicle id="v9882" depart="274.07" route="r2652" type="CarDefault" departLane="random" />
	<vehicle id="v8918" depart="276.37" route="r2651" type="CarDefault" departLane="random" />
	<vehicle id="v8051" depart="276.92" route="r2653" type="CarDefault" departLane="random" />
	<vehicle id="v7317" depart="279.56" route="sr2166" type="CarDefault" departLane="random" />
	<vehicle id="v8919" depart="279.96" route="r2651" type="CarDefault" departLane="random" />
	<vehicle id="v9883" depart="281.48" route="r2652" type="CarDefault" departLane="random" />
	<vehicle id="v8052" depart="281.62" route="r2653" type="CarDefault" departLane="random" />
	<vehicle id="v8920" depart="283.55" route="r2651" type="CarDefault" departLane="random" />
	<vehicle id="v7318" depart="285.26" route="sr2166" type="CarDefault" departLane="random" />
	<vehicle id="v8053" depart="286.31" route="r2653" type="CarDefault" departLane="random" />
	<vehicle id="v8921" depart="287.14" route="r2651" type="CarDefault" departLane="random" />
	<vehicle id="v9884" depart="288.89" route="r2652" type="CarDefault" departLane="random" />
	<vehicle id="v8922" depart="290.73" route="r2651" type="CarDefault" departLane="random" />
	<vehicle id="v7319" depart="290.97" route="sr2166" type="CarDefault" departLane="random" />
	<vehicle id="v8054" depart="291.0" route="r2653" type="CarDefault" departLane="random" />
	<vehicle id="v8923" depart="294.32" route="r2651" type="CarDefault" departLane="random" />
	<vehicle id="v8055" depart="295.7" route="r2653" type="CarDefault" departLane="random" />
	<vehicle id="v9885" depart="296.3" route="r2652" type="CarDefault" departLane="random" />
	<vehicle id="v7320" depart="296.67" route="sr2166" type="CarDefault" departLane="random" />
	<vehicle id="v8924" depart="297.91" route="r2651" type="CarDefault" departLane="random" />
	<vehicle id="v8056" depart="300.39" route="r2653" type="CarDefault" departLane="random" />
	<vehicle id="v8925" depart="301.5" route="r2651" type="CarDefault" departLane="random" />
	<vehicle id="v7183" depart="302" route="sr2166" type="CarDefault" departLane="random" />
	<vehicle id="v7321" depart="302.38" route="sr2166" type="CarDefault" departLane="random" />
	<vehicle id="v9886" depart="303.7" route="r2652" type="CarDefault" departLane="random" />
	<vehicle id="v8057" depart="305.08" route="r2653" type="CarDefault" departLane="random" />
	<vehicle id="v8926" depart="305.08" route="r2651" type="CarDefault" departLane="random" />
	<vehicle id="v7322" depart="308.08" route="sr2166" type="CarDefault" departLane="random" />
	<vehicle id="v8927" depart="308.67" route="r2651" type="CarDefault" departLane="random" />
	<vehicle id="v7906" depart="309" route="r2653" type="CarDefault" departLane="random" />
	<vehicle id="v8058" depart="309.78" route="r2653" type="CarDefault" departLane="random" />
	<vehicle id="v9887" depart="311.11" route="r2652" type="CarDefault" departLane="random" />
	<vehicle id="v8928" depart="312.26" route="r2651" type="CarDefault" departLane="random" />
	<vehicle id="v7323" depart="313.79" route="sr2166" type="CarDefault" departLane="random" />
	<vehicle id="v8059" depart="314.47" route="r2653" type="CarDefault" departLane="random" />
	<vehicle id="v8929" depart="315.85" route="r2651" type="CarDefault" departLane="random" />
	<vehicle id="v9888" depart="318.52" route="r2652" type="CarDefault" departLane="random" />
	<vehicle id="v8060" depart="319.17" route="r2653" type="CarDefault" departLane="random" />
	<vehicle id="v8930" depart="319.44" route="r2651" type="CarDefault" departLane="random" />
	<vehicle id="v7324" depart="319.49" route="sr2166" type="CarDefault" departLane="random" />
	<vehicle id="v8931" depart="323.03" route="r2651" type="CarDefault" departLane="random" />
	<vehicle id="v8061" depart="323.86" route="r2653" type="CarDefault" departLane="random" />
	<vehicle id="v7325" depart="325.2" route="sr2166" type="CarDefault" departLane="random" />
	<vehicle id="v9889" depart="325.93" route="r2652" type="CarDefault" departLane="random" />
	<vehicle id="v8932" depart="326.62" route="r2651" type="CarDefault" departLane="random" />
	<vehicle id="v8062" depart="328.55" route="r2653" type="CarDefault" departLane="random" />
	<vehicle id="v8933" depart="330.21" route="r2651" type="CarDefault" departLane="random" />
	<vehicle id="v7326" depart="330.9" route="sr2166" type="CarDefault" departLane="random" />
	<vehicle id="v8063" depart="333.25" route="r2653" type="CarDefault" departLane="random" />
	<vehicle id="v9890" depart="333.33" route="r2652" type="CarDefault" departLane="random" />
	<vehicle id="v8934" depart="333.8" route="r2651" type="CarDefault" departLane="random" />
	<vehicle id="v7907" depart="335" route="r2653" type="CarDefault" departLane="random" />
	<vehicle id="v7327" depart="336.61" route="sr2166" type="CarDefault" departLane="random" />
	<vehicle id="v8935" depart="337.39" route="r2651" type="CarDefault" departLane="random" />
	<vehicle id="v8064" depart="337.94" route="r2653" type="CarDefault" departLane="random" />
	<vehicle id="v9891" depart="340.74" route="r2652" type="CarDefault" departLane="random" />
	<vehicle id="v8936" depart="340.98" route="r2651" type="CarDefault" departLane="random" />
	<vehicle id="v7328" depart="342.31" route="sr2166" type="CarDefault" departLane="random" />
	<vehicle id="v8065" depart="342.63" route="r2653" type="CarDefault" departLane="random" />
	<vehicle id="v8937" depart="344.57" route="r2651" type="CarDefault" departLane="random" />
	<vehicle id="v8066" depart="347.33" route="r2653" type="CarDefault" departLane="random" />
	<vehicle id="v7329" depart="348.02" route="sr2166" type="CarDefault" departLane="random" />
	<vehicle id="v9892" depart="348.15" route="r2652" type="CarDefault" departLane="random" />
	<vehicle id="v8938" depart="348.16" route="r2651" type="CarDefault" departLane="random" />
	<vehicle id="v8764" depart="350" route="r2651" type="CarDefault" departLane="random" />
	<vehicle id="v8939" depart="351.74" route="r2651" type="CarDefault" departLane="random" />
	<vehicle id="v8067" depart="352.02" route="r2653" type="CarDefault" departLane="random" />
	<vehicle id="v7330" depart="353.72" route="sr2166" type="CarDefault" departLane="random" />
	<vehicle id="v8940" depart="355.33" route="r2651" type="CarDefault" departLane="random" />
	<vehicle id="v9893" depart="355.56" route="r2652" type="CarDefault" departLane="random" />
	<vehicle id="v8068" depart="356.71" route="r2653" type="CarDefault" departLane="random" />
	<vehicle id="v8941" depart="358.92" route="r2651" type="CarDefault" departLane="random" />
	<vehicle id="v7331" depart="359.43" route="sr2166" type="CarDefault" departLane="random" />
	<vehicle id="v8069" depart="361.41" route="r2653" type="CarDefault" departLane="random" />
	<vehicle id="v8942" depart="362.51" route="r2651" type="CarDefault" departLane="random" />
	<vehicle id="v9894" depart="362.96" route="r2652" type="CarDefault" departLane="random" />
	<vehicle id="v7184" depart="365" route="sr2166" type="CarDefault" departLane="random" />
	<vehicle id="v7332" depart="365.13" route="sr2166" type="CarDefault" departLane="random" />