<?xml version='1.0' encoding='utf-8'?>
<routes>
	<vType accel="3.0" decel="6.0" id="CarDefault" length="5.0" minGap="2.5" maxSpeed="50.0" sigma="0.5" />
	<route id="sr461" edges="62 129 61 6 5 161 162 361 163 164 38 134 116 115 114 113 112 74 73 72 71 70 69 68" fromJunction="154" toJunction="42" />
	<route id="r3511" edges="62 129 360 453 416 422 419 415 348 6 5 161 162 361 163 164 38 134 116 115 114 113 112 74 73 72 71 70 69 68" fromJunction="154" toJunction="42" />
	<route id="r3512" edges="226 227 228 454 206 185 186 103 386 93 156 278 41 40 237 0" fromJunction="127" toJunction="117" />
	<route id="r3510" edges="279 280 281 282 283 284 285 322 393 427 425 426 25 50" fromJunction="42" toJunction="11" />
	<route id="sr460" edges="226 227 228 116 359 300 301 124 30 29 397 398 399 400 401 237 0" fromJunction="127" toJunction="117" />
	<route id="sr459" edges="279 280 281 282 283 284 285 394 395 396 28 27 26 25 50" fromJunction="42" toJunction="11" />
	<vehicle id="v91" depart="0.0" route="r3510" type="CarDefault" departLane="random" />
	<vehicle id="v757" depart="0.0" route="r3512" type="CarDefault" departLane="random" />
	<vehicle id="v1817" depart="0.0" route="r3511" type="CarDefault" departLane="random" />
	<vehicle id="v1734" depart="2" route="r3511" type="CarDefault" departLane="random" />
	<vehicle id="v1818" depart="4.84" route="r3511" type="CarDefault" departLane="random" />
	<vehicle id="v92" depart="5.41" route="r3510" type="CarDefault" departLane="random" />
	<vehicle id="v758" depart="7.41" route="r3512" type="CarDefault" departLane="random" />
	<vehicle id="v1819" depart="9.68" route="r3511" type="CarDefault" departLane="random" />
	<vehicle id="v93" depart="10.83" route="r3510" type="CarDefault" departLane="random" />
	<vehicle id="v1820" depart="14.52" route="r3511" type="CarDefault" departLane="random" />
	<vehicle id="v759" depart="14.81" route="r3512" type="CarDefault" departLane="random" />
	<vehicle id="v94" depart="16.24" route="r3510" type="CarDefault" departLane="random" />
	<vehicle id="v1821" depart="19.35" route="r3511" type="CarDefault" departLane="random" />
	<vehicle id="v95" depart="21.65" route="r3510" type="CarDefault" departLane="random" />
	<vehicle id="v760" depart="22.22" route="r3512" type="CarDefault" departLane="random" />
	<vehicle id="v1822" depart="24.19" route="r3511" type="CarDefault" departLane="random" />
	<vehicle id="v96" depart="27.07" route="r3510" type="CarDefault" departLane="random" />
	<vehicle id="v1823" depart="29.03" route="r3511" type="CarDefault" departLane="random" />
	<vehicle id="v761" depart="29.63" route="r3512" type="CarDefault" departLane="random" />
	<vehicle id="v97" depart="32.48" route="r3510" type="CarDefault" departLane="random" />
	<vehicle id="v1824" depart="33.87" route="r3511" type="CarDefault" departLane="random" />
	<vehicle id="v762" depart="37.04" route="r3512" type="CarDefault" departLane="random" />
	<vehicle id="v98" depart="37.89" route="r3510" type="CarDefault" departLane="random" />
	<vehicle id="v1825" depart="38.71" route="r3511" type="CarDefault" departLane="random" />
	<vehicle id="v99" depart="43.31" route="r3510" type="CarDefault" departLane="random" />
	<vehicle id="v1826" depart="43.55" route="r3511" type="CarDefault" departLane="random" />
	<vehicle id="v763" depart="44.44" route="r3512" type="CarDefault" departLane="random" />
	<vehicle id="v1827" depart="48.39" route="r3511" type="CarDefault" departLane="random" />
	<vehicle id="v100" depart="48.72" route="r3510" type="CarDefault" departLane="random" />
	<vehicle id="v764" depart="51.85" route="r3512" type="CarDefault" departLane="random" />
	<vehicle id="v1828" depart="53.23" route="r3511" type="CarDefault" departLane="random" />
	<vehicle id="v1735" depart="54" route="r3511" type="CarDefault" departLane="random" />
	<vehicle id="v101" depart="54.14" route="r3510" type="CarDefault" departLane="random" />
	<vehicle id="v1829" depart="58.06" route="r3511" type="CarDefault" departLane="random" />
	<vehicle id="v765" depart="59.26" route="r3512" type="CarDefault" departLane="random" />
	<vehicle id="v102" depart="59.55" route="r3510" type="CarDefault" departLane="random" />
	<vehicle id="v1736" depart="60" route="r3511" type="CarDefault" departLane="random" />
	<vehicle id="v1830" depart="62.9" route="r3511" type="CarDefault" departLane="random" />
	<vehicle id="v103" depart="64.96" route="r3510" type="CarDefault" departLane="random" />
	<vehicle id="v766" depart="66.67" route="r3512" type="CarDefault" departLane="random" />
	<vehicle id="v0" depart="67" route="r3510" type="CarDefault" departLane="random" />
	<vehicle id="v1831" depart="67.74" route="r3511" type="CarDefault" departLane="random" />
	<vehicle id="v104" depart="70.38" route="r3510" type="CarDefault" departLane="random" />
	<vehicle id="v1832" depart="72.58" route="r3511" type="CarDefault" departLane="random" />
	<vehicle id="v767" depart="74.07" route="r3512" type="CarDefault" departLane="random" />
	<vehicle id="v105" depart="75.79" route="r3510" type="CarDefault" departLane="random" />
	<vehicle id="v1833" depart="77.42" route="r3511" type="CarDefault" departLane="random" />
	<vehicle id="v106" depart="81.2" route="r3510" type="CarDefault" departLane="random" />
	<vehicle id="v768" depart="81.48" route="r3512" type="CarDefault" departLane="random" />
	<vehicle id="v1834" depart="82.26" route="r3511" type="CarDefault" departLane="random" />
	<vehicle id="v107" depart="86.62" route="r3510" type="CarDefault" departLane="random" />
	<vehicle id="v1835" depart="87.1" route="r3511" type="CarDefault" departLane="random" />
	<vehicle id="v769" depart="88.89" route="r3512" type="CarDefault" departLane="random" />
	<vehicle id="v1836" depart="91.94" route="r3511" type="CarDefault" departLane="random" />
	<vehicle id="v108" depart="92.03" route="r3510" type="CarDefault" departLane="random" />
	<vehicle id="v770" depart="96.3" route="r3512" type="CarDefault" departLane="random" />
	<vehicle id="v1837" depart="96.77" route="r3511" type="CarDefault" departLane="random" />
	<vehicle id="v109" depart="97.44" route="r3510" type="CarDefault" departLane="random" />
	<vehicle id="v1838" depart="101.61" route="r3511" type="CarDefault" departLane="random" />
	<vehicle id="v110" depart="102.86" route="r3510" type="CarDefault" departLane="random" />
	<vehicle id="v771" depart="103.7" route="r3512" type="CarDefault" departLane="random" />
	<vehicle id="v1839" depart="106.45" route="r3511" type="CarDefault" departLane="random" />
	<vehicle id="v111" depart="108.27" route="r3510" type="CarDefault" departLane="random" />
	<vehicle id="v772" depart="111.11" route="r3512" type="CarDefault" departLane="random" />
	<vehicle id="v1840" depart="111.29" route="r3511" type="CarDefault" departLane="random" />
	<vehicle id="v112" depart="113.68" route="r3510" type="CarDefault" departLane="random" />
	<vehicle id="v1841" depart="116.13" route="r3511" type="CarDefault" departLane="random" />
	<vehicle id="v1" depart="117" route="r3510" type="CarDefault" departLane="random" />
	<vehicle id="v773" depart="118.52" route="r3512" type="CarDefault" departLane="random" />
	<vehicle id="v113" depart="119.1" route="r3510" type="CarDefault" departLane="random" />
	<vehicle id="v1842" depart="120.97" route="r3511" type="CarDefault" departLane="random" />
	<vehicle id="v114" depart="124.51" route="r3510" type="CarDefault" departLane="random" />
	<vehicle id="v1843" depart="125.81" route="r3511" type="CarDefault" departLane="random" />
	<vehicle id="v774" depart="125.93" route="r3512" type="CarDefault" departLane="random" />
	<vehicle id="v115" depart="129.92" route="r3510" type="CarDefault" departLane="random" />
	<vehicle id="v1844" depart="130.65" route="r3511" type="CarDefault" departLane="random" />
	<vehicle id="v775" depart="133.33" route="r3512" type="CarDefault" departLane="random" />
	<vehicle id="v116" depart="135.34" route="r3510" type="CarDefault" departLane="random" />
	<vehicle id="v1845" depart="135.48" route="r3511" type="CarDefault" departLane="random" />
	<vehicle id="v1737" depart="136" route="r3511" type="CarDefault" departLane="random" />
	<vehicle id="v1846" depart="140.32" route="r3511" type="CarDefault" departLane="random" />
	<vehicle id="v776" depart="140.74" route="r3512" type="CarDefault" departLane="random" />
	<vehicle id="v117" depart="140.75" route="r3510" type="CarDefault" departLane="random" />
	<vehicle id="v1847" depart="145.16" route="r3511" type="CarDefault" departLane="random" />
	<vehicle id="v118" depart="146.17" route="r3510" type="CarDefault" departLane="random" />
	<vehicle id="v777" depart="148.15" route="r3512" type="CarDefault" departLane="random" />
	<vehicle id="v1848" depart="150.0" route="r3511" type="CarDefault" departLane="random" />
	<vehicle id="v2" depart="151" route="r3510" type="CarDefault" departLane="random" />
	<vehicle id="v119" depart="151.58" route="r3510" type="CarDefault" departLane="random" />
	<vehicle id="v1849" depart="154.84" route="r3511" type="CarDefault" departLane="random" />
	<vehicle id="v778" depart="155.56" route="r3512" type="CarDefault" departLane="random" />
	<vehicle id="v120" depart="156.99" route="r3510" type="CarDefault" departLane="random" />
	<vehicle id="v1850" depart="159.68" route="r3511" type="CarDefault" departLane="random" />
	<vehicle id="v121" depart="162.41" route="r3510" type="CarDefault" departLane="random" />
	<vehicle id="v779" depart="162.96" route="r3512" type="CarDefault" departLane="random" />
	<vehicle id="v1738" depart="164" route="r3511" type="CarDefault" departLane="random" />
	<vehicle id="v1851" depart="164.52" route="r3511" type="CarDefault" departLane="random" />
	<vehicle id="v122" depart="167.82" route="r3510" type="CarDefault" departLane="random" />
	<vehicle id="v1852" depart="169.35" route="r3511" type="CarDefault" departLane="random" />
	<vehicle id="v780" depart="170.37" route="r3512" type="CarDefault" departLane="random" />
	<vehicle id="v123" depart="173.23" route="r3510" type="CarDefault" departLane="random" />
	<vehicle id="v1853" depart="174.19" route="r3511" type="CarDefault" departLane="random" />
	<vehicle id="v781" depart="177.78" route="r3512" type="CarDefault" departLane="random" />
	<vehicle id="v124" depart="178.65" route="r3510" type="CarDefault" departLane="random" />
	<vehicle id="v1854" depart="179.03" route="r3511" type="CarDefault" departLane="random" />
	<vehicle id="v1855" depart="183.87" route="r3511" type="CarDefault" departLane="random" />
	<vehicle id="v125" depart="184.06" route="r3510" type="CarDefault" departLane="random" />
	<vehicle id="v782" depart="185.19" route="r3512" type="CarDefault" departLane="random" />
	<vehicle id="v1856" depart="188.71" route="r3511" type="CarDefault" departLane="random" />
	<vehicle id="v126" depart="189.47" route="r3510" type="CarDefault" departLane="random" />
	<vehicle id="v1739" depart="190" route="r3511" type="CarDefault" departLane="random" />
	<vehicle id="v783" depart="192.59" route="r3512" type="CarDefault" departLane="random" />
	<vehicle id="v1857" depart="193.55" route="r3511" type="CarDefault" departLane="random" />
	<vehicle id="v127" depart="194.89" route="r3510" type="CarDefault" departLane="random" />
	<vehicle id="v1858" depart="198.39" route="r3511" type="CarDefault" departLane="random" />
	<vehicle id="v784" depart="200.0" route="r3512" type="CarDefault" departLane="random" />
	<vehicle id="v128" depart="200.3" route="r3510" type="CarDefault" departLane="random" />
	<vehicle id="v1859" depart="203.23" route="r3511" type="CarDefault" departLane="random" />
	<vehicle id="v129" depart="205.71" route="r3510" type="CarDefault" departLane="random" />
	<vehicle id="v3" depart="206" route="r3510" type="CarDefault" departLane="random" />
	<vehicle id="v785" depart="207.41" route="r3512" type="CarDefault" departLane="random" />
	<vehicle id="v1860" depart="208.06" route="r3511" type="CarDefault" departLane="random" />
	<vehicle id="v1740" depart="210" route="r3511" type="CarDefault" departLane="random" />
	<vehicle id="v130" depart="211.13" route="r3510" type="CarDefault" departLane="random" />
	<vehicle id="v1861" depart="212.9" route="r3511" type="CarDefault" departLane="random" />
	<vehicle id="v786" depart="214.81" route="r3512" type="CarDefault" departLane="random" />
	<vehicle id="v131" depart="216.54" route="r3510" type="CarDefault" departLane="random" />
	<vehicle id="v1862" depart="217.74" route="r3511" type="CarDefault" departLane="random" />
	<vehicle id="v132" depart="221.95" route="r3510" type="CarDefault" departLane="random" />
	<vehicle id="v787" depart="222.22" route="r3512" type="CarDefault" departLane="random" />
	<vehicle id="v1863" depart="222.58" route="r3511" type="CarDefault" departLane="random" />
	<vehicle id="v133" depart="227.37" route="r3510" type="CarDefault" departLane="random" />
	<vehicle id="v1864" depart="227.42" route="r3511" type="CarDefault" departLane="random" />
	<vehicle id="v788" depart="229.63" route="r3512" type="CarDefault" departLane="random" />
	<vehicle id="v1865" depart="232.26" route="r3511" type="CarDefault" departLane="random" />
	<vehicle id="v134" depart="232.78" route="r3510" type="CarDefault" departLane="random" />
	<vehicle id="v4" depart="235" route="r3510" type="CarDefault" departLane="random" />
	<vehicle id="v789" depart="237.04" route="r3512" type="CarDefault" departLane="random" />
	<vehicle id="v1866" depart="237.1" route="r3511" type="CarDefault" departLane="random" />
	<vehicle id="v135" depart="238.2" route="r3510" type="CarDefault" departLane="random" />
	<vehicle id="v1867" depart="241.94" route="r3511" type="CarDefault" departLane="random" />
	<vehicle id="v136" depart="243.61" route="r3510" type="CarDefault" departLane="random" />
	<vehicle id="v790" depart="244.44" route="r3512" type="CarDefault" departLane="random" />
	<vehicle id="v1868" depart="246.77" route="r3511" type="CarDefault" departLane="random" />
	<vehicle id="v1741" depart="249" route="r3511" type="CarDefault" departLane="random" />
	<vehicle id="v137" depart="249.02" route="r3510" type="CarDefault" departLane="random" />
	<vehicle id="v1869" depart="251.61" route="r3511" type="CarDefault" departLane="random" />
	<vehicle id="v791" depart="251.85" route="r3512" type="CarDefault" departLane="random" />
	<vehicle id="v138" depart="254.44" route="r3510" type="CarDefault" departLane="random" />
	<vehicle id="v1870" depart="256.45" route="r3511" type="CarDefault" departLane="random" />
	<vehicle id="v792" depart="259.26" route="r3512" type="CarDefault" departLane="random" />
	<vehicle id="v139" depart="259.85" route="r3510" type="CarDefault" departLane="random" />
	<vehicle id="v5" depart="260" route="r3510" type="CarDefault" departLane="random" />
	<vehicle id="v1871" depart="261.29" route="r3511" type="CarDefault" departLane="random" />
	<vehicle id="v140" depart="265.26" route="r3510" type="CarDefault" departLane="random" />
	<vehicle id="v1872" depart="266.13" route="r3511" type="CarDefault" departLane="random" />
	<vehicle id="v793" depart="266.67" route="r3512" type="CarDefault" departLane="random" />
	<vehicle id="v141" depart="270.68" route="r3510" type="CarDefault" departLane="random" />
	<vehicle id="v1873" depart="270.97" route="r3511" type="CarDefault" departLane="random" />
	<vehicle id="v794" depart="274.07" route="r3512" type="CarDefault" departLane="random" />
	<vehicle id="v1874" depart="275.81" route="r3511" type="CarDefault" departLane="random" />
	<vehicle id="v142" depart="276.09" route="r3510" type="CarDefault" departLane="random" />
	<vehicle id="v1875" depart="280.65" route="r3511" type="CarDefault" departLane="random" />
	<vehicle id="v795" depart="281.48" route="r3512" type="CarDefault" departLane="random" />
	<vehicle id="v143" depart="281.5" route="r3510" type="CarDefault" departLane="random" />
	<vehicle id="v1876" depart="285.48" route="r3511" type="CarDefault" departLane="random" />
	<vehicle id="v144" depart="286.92" route="r3510" type="CarDefault" departLane="random" />
	<vehicle id="v796" depart="288.89" route="r3512" type="CarDefault" departLane="random" />
	<vehicle id="v1742" depart="290" route="r3511" type="CarDefault" departLane="random" />
	<vehicle id="v1877" depart="290.32" route="r3511" type="CarDefault" departLane="random" />
	<vehicle id="v145" depart="292.33" route="r3510" type="CarDefault" departLane="random" />
	<vehicle id="v1878" depart="295.16" route="r3511" type="CarDefault" departLane="random" />
	<vehicle id="v797" depart="296.3" route="r3512" type="CarDefault" departLane="random" />
	<vehicle id="v6" depart="297" route="r3510" type="CarDefault" departLane="random" />
	<vehicle id="v146" depart="297.74" route="r3510" type="CarDefault" departLane="random" />
	<vehicle id="v1879" depart="300.0" route="r3511" type="CarDefault" departLane="random" />
	<vehicle id="v147" depart="303.16" route="r3510" type="CarDefault" departLane="random" />
	<vehicle id="v798" depart="303.7" route="r3512" type="CarDefault" departLane="random" />
	<vehicle id="v1880" depart="304.84" route="r3511" type="CarDefault" departLane="random" />
	<vehicle id="v1743" depart="308" route="r3511" type="CarDefault" departLane="random" />
	<vehicle id="v148" depart="308.57" route="r3510" type="CarDefault" departLane="random" />
	<vehicle id="v1881" depart="309.68" route="r3511" type="CarDefault" departLane="random" />
	<vehicle id="v799" depart="311.11" route="r3512" type="CarDefault" departLane="random" />
	<vehicle id="v149" depart="313.98" route="r3510" type="CarDefault" departLane="random" />
	<vehicle id="v1882" depart="314.52" route="r3511" type="CarDefault" departLane="random" />
	<vehicle id="v800" depart="318.52" route="r3512" type="CarDefault" departLane="random" />
	<vehicle id="v1883" depart="319.35" route="r3511" type="CarDefault" departLane="random" />
	<vehicle id="v150" depart="319.4" route="r3510" type="CarDefault" departLane="random" />
	<vehicle id="v1744" depart="322" route="r3511" type="CarDefault" departLane="random" />
	<vehicle id="v1884" depart="324.19" route="r3511" type="CarDefault" departLane="random" />
	<vehicle id="v151" depart="324.81" route="r3510" type="CarDefault" departLane="random" />
	<vehicle id="v801" depart="325.93" route="r3512" type="CarDefault" departLane="random" />
	<vehicle id="v1885" depart="329.03" route="r3511" type="CarDefault" departLane="random" />
	<vehicle id="v152" depart="330.23" route="r3510" type="CarDefault" departLane="random" />
	<vehicle id="v802" depart="333.33" route="r3512" type="CarDefault" departLane="random" />
	<vehicle id="v1886" depart="333.87" route="r3511" type="CarDefault" departLane="random" />
	<vehicle id="v7" depart="334" route="r3510" type="CarDefault" departLane="random" />
	<vehicle id="v153" depart="335.64" route="r3510" type="CarDefault" departLane="random" />
	<vehicle id="v1887" depart="338.71" route="r3511" type="CarDefault" departLane="random" />
	<vehicle id="v803" depart="340.74" route="r3512" type="CarDefault" departLane="random" />
	<vehicle id="v154" depart="341.05" route="r3510" type="CarDefault" departLane="random" />
	<vehicle id="v1888" depart="343.55" route="r3511" type="CarDefault" departLane="random" />
	<vehicle id="v155" depart="346.47" route="r3510" type="CarDefault" departLane="random" />
	<vehicle id="v1745" depart="348" route="r3511" type="CarDefault" departLane="random" />
	<vehicle id="v804" depart="348.15" route="r3512" type="CarDefault" departLane="random" />
	<vehicle id="v1889" depart="348.39" route="r3511" type="CarDefault" departLane="random" />
	<vehicle id="v156" depart="351.88" route="r3510" type="CarDefault" departLane="random" />
	<vehicle id="v1890" depart="353.23" route="r3511" type="CarDefault" departLane="random" />
	<vehicle id="v805" depart="355.56" route="r3512" type="CarDefault" departLane="random" />
	<vehicle id="v157" depart="357.29" route="r3510" type="CarDefault" departLane="random" />
	<vehicle id="v1891" depart="358.06" route="r3511" type="CarDefault" departLane="random" />
	<vehicle id="v158" depart="362.71" route="r3510" type="CarDefault" departLane="random" />
	<vehicle id="v1892" depart="362.9" route="r3511" type="CarDefault" departLane="random" />
	<vehicle id="v806" depart="362.96" route="r3512" type="CarDefault" departLane="random" />
	<vehicle id="v1893" depart="367.74" route="r3511" type="CarDefault" departLane="random" />
	<vehicle id="v159" depart="368.12" route="r3510" type="CarDefault" departLane="random" />
	<vehicle id="v807" depart="370.37" route="r3512" type="CarDefault" departLane="random" />
	<vehicle id="v1894" depart="372.58" route="r3511" type="CarDefault" departLane="random" />
	<vehicle id="v160" depart="373.53" route="r3510" type="CarDefault" departLane="random" />
	<vehicle id="v1746" depart="374" route="r3511" type="CarDefault" departLane="random" />
	<vehicle id="v1895" depart="377.42" route="r3511" type="CarDefault" departLane="random" />
	<vehicle id="v808" depart="377.78" route="r3512" type="CarDefault" departLane="random" />
	<vehicle id="v161" depart="378.95" route="r3510" type="CarDefault" departLane="random" />
	<vehicle id="v1896" depart="382.26" route="r3511" type="CarDefault" departLane="random" />
	<vehicle id="v162" depart="384.36" route="r3510" type="CarDefault" departLane="random" />
	<vehicle id="v809" depart="385.19" route="r3512" type="CarDefault" departLane="random" />
	<vehicle id="v1897" depart="387.1" route="r3511" type="CarDefault" departLane="random" />
	<vehicle id="v163" depart="389.77" route="r3510" type="CarDefault" departLane="random" />
	<vehicle id="v8" depart="391" route="r3510" type="CarDefault" departLane="random" />
	<vehicle id="v1898" depart="391.94" route="r3511" type="CarDefault" departLane="random" />
	<vehicle id="v810" depart="392.59" route="r3512" type="CarDefault" departLane="random" />
	<vehicle id="v164" depart="395.19" route="r3510" type="CarDefault" departLane="random" />
	<vehicle id="v1899" depart="396.77" route="r3511" type="CarDefault" departLane="random" />
	<vehicle id="v811" depart="400.0" route="r3512" type="CarDefault" departLane="random" />
	<vehicle id="v165" depart="400.6" route="r3510" type="CarDefault" departLane="random" />
	<vehicle id="v1900" depart="401.61" route="r3511" type="CarDefault" departLane="random" />
	<vehicle id="v166" depart="406.02" route="r3510" type="CarDefault" departLane="random" />
	<vehicle id="v1901" depart="406.45" route="r3511" type="CarDefault" departLane="random" />
	<vehicle id="v812" depart="407.41" route="r3512" type="CarDefault" departLane="random" />
	<vehicle id="v9" depart="410" route="r3510" type="CarDefault" departLane="random" />
	<vehicle id="v1902" depart="411.29" route="r3511" type="CarDefault" departLane="random" />
	<vehicle id="v167" depart="411.43" route="r3510" type="CarDefault" departLane="random" />
	<vehicle id="v813" depart="414.81" route="r3512" type="CarDefault" departLane="random" />
	<vehicle id="v1903" depart="416.13" route="r3511" type="CarDefault" departLane="random" />
	<vehicle id="v168" depart="416.84" route="r3510" type="CarDefault" departLane="random" />
	<vehicle id="v1904" depart="420.97" route="r3511" type="CarDefault" departLane="random" />
	<vehicle id="v814" depart="422.22" route="r3512" type="CarDefault" departLane="random" />
	<vehicle id="v169" depart="422.26" route="r3510" type="CarDefault" departLane="random" />
	<vehicle id="v1905" depart="425.81" route="r3511" type="CarDefault" departLane="random" />
	<vehicle id="v170" depart="427.67" route="r3510" type="CarDefault" departLane="random" />
	<vehicle id="v815" depart="429.63" route="r3512" type="CarDefault" departLane="random" />
	<vehicle id="v1906" depart="430.65" route="r3511" type="CarDefault" departLane="random" />
	<vehicle id="v171" depart="433.08" route="r3510" type="CarDefault" departLane="random" />
	<vehicle id="v1907" depart="435.48" route="r3511" type="CarDefault" departLane="random" />
	<vehicle id="v816" depart="437.04" route="r3512" type="CarDefault" departLane="random" />
	<vehicle id="v172" depart="438.5" route="r3510" type="CarDefault" departLane="random" />
	<vehicle id="v1908" depart="440.32" route="r3511" type="CarDefault" departLane="random" />
	<vehicle id="v173" depart="443.91" route="r3510" type="CarDefault" departLane="random" />
	<vehicle id="v817" depart="444.44" route="r3512" type="CarDefault" departLane="random" />
	<vehicle id="v10" depart="445" route="r3510" type="CarDefault" departLane="random" />
	<vehicle id="v1909" depart="445.16" route="r3511" type="CarDefault" departLane="random" />
	<vehicle id="v174" depart="449.32" route="r3510" type="CarDefault" departLane="random" />
	<vehicle id="v1910" depart="450.0" route="r3511" type="CarDefault" departLane="random" />
	<vehicle id="v818" depart="451.85" route="r3512" type="CarDefault" departLane="random" />
	<vehicle id="v175" depart="454.74" route="r3510" type="CarDefault" departLane="random" />
	<vehicle id="v1911" depart="454.84" route="r3511" type="CarDefault" departLane="random" />
	<vehicle id="v1747" depart="456" route="r3511" type="CarDefault" departLane="random" />
	<vehicle id="v819" depart="459.26" route="r3512" type="CarDefault" departLane="random" />
	<vehicle id="v1912" depart="459.68" route="r3511" type="CarDefault" departLane="random" />
	<vehicle id="v176" depart="460.15" route="r3510" type="CarDefault" departLane="random" />
	<vehicle id="v1913" depart="464.52" route="r3511" type="CarDefault" departLane="random" />
	<vehicle id="v177" depart="465.56" route="r3510" type="CarDefault" departLane="random" />
	<vehicle id="v820" depart="466.67" route="r3512" type="CarDefault" departLane="random" />
	<vehicle id="v1914" depart="469.35" route="r3511" type="CarDefault" departLane="random" />
	<vehicle id="v178" depart="470.98" route="r3510" type="CarDefault" departLane="random" />
	<vehicle id="v1748" depart="472" route="r3511" type="CarDefault" departLane="random" />
	<vehicle id="v821" depart="474.07" route="r3512" type="CarDefault" departLane="random" />
	<vehicle id="v1915" depart="474.19" route="r3511" type="CarDefault" departLane="random" />
	<vehicle id="v179" depart="476.39" route="r3510" type="CarDefault" departLane="random" />
	<vehicle id="v11" depart="479" route="r3510" type="CarDefault" departLane="random" />
	<vehicle id="v1916" depart="479.03" route="r3511" type="CarDefault" departLane="random" />
	<vehicle id="v822" depart="481.48" route="r3512" type="CarDefault" departLane="random" />
	<vehicle id="v180" depart="481.8" route="r3510" type="CarDefault" departLane="random" />
	<vehicle id="v1917" depart="483.87" route="r3511" type="CarDefault" departLane="random" />
	<vehicle id="v181" depart="487.22" route="r3510" type="CarDefault" departLane="random" />
	<vehicle id="v1918" depart="488.71" route="r3511" type="CarDefault" departLane="random" />
	<vehicle id="v823" depart="488.89" route="r3512" type="CarDefault" departLane="random" />
	<vehicle id="v12" depart="490" route="r3510" type="CarDefault" departLane="random" />
	<vehicle id="v182" depart="492.63" route="r3510" type="CarDefault" departLane="random" />
	<vehicle id="v1919" depart="493.55" route="r3511" type="CarDefault" departLane="random" />
	<vehicle id="v824" depart="496.3" route="r3512" type="CarDefault" departLane="random" />
	<vehicle id="v183" depart="498.05" route="r3510" type="CarDefault" departLane="random" />
	<vehicle id="v1920" depart="498.39" route="r3511" type="CarDefault" departLane="random" />
	<vehicle id="v1921" depart="503.23" route="r3511" type="CarDefault" departLane="random" />
	<vehicle id="v184" depart="503.46" route="r3510" type="CarDefault" departLane="random" />
	<vehicle id="v825" depart="503.7" route="r3512" type="CarDefault" departLane="random" />
	<vehicle id="v13" depart="506" route="r3510" type="CarDefault" departLane="random" />
	<vehicle id="v1749" depart="508" route="r3511" type="CarDefault" departLane="random" />
	<vehicle id="v1922" depart="508.06" route="r3511" type="CarDefault" departLane="random" />
	<vehicle id="v185" depart="508.87" route="r3510" type="CarDefault" departLane="random" />
	<vehicle id="v826" depart="511.11" route="r3512" type="CarDefault" departLane="random" />
	<vehicle id="v1923" depart="512.9" route="r3511" type="CarDefault" departLane="random" />
	<vehicle id="v186" depart="514.29" route="r3510" type="CarDefault" departLane="random" />
	<vehicle id="v1924" depart="517.74" route="r3511" type="CarDefault" departLane="random" />
	<vehicle id="v827" depart="518.52" route="r3512" type="CarDefault" departLane="random" />
	<vehicle id="v187" depart="519.7" route="r3510" type="CarDefault" departLane="random" />
	<vehicle id="v1925" depart="522.58" route="r3511" type="CarDefault" departLane="random" />
	<vehicle id="v188" depart="525.11" route="r3510" type="CarDefault" departLane="random" />
	<vehicle id="v828" depart="525.93" route="r3512" type="CarDefault" departLane="random" />
	<vehicle id="v1926" depart="527.42" route="r3511" type="CarDefault" departLane="random" />
	<vehicle id="v189" depart="530.53" route="r3510" type="CarDefault" departLane="random" />
	<vehicle id="v1927" depart="532.26" route="r3511" type="CarDefault" departLane="random" />
	<vehicle id="v829" depart="533.33" route="r3512" type="CarDefault" departLane="random" />
	<vehicle id="v190" depart="535.94" route="r3510" type="CarDefault" departLane="random" />
	<vehicle id="v1928" depart="537.1" route="r3511" type="CarDefault" departLane="random" />
	<vehicle id="v830" depart="540.74" route="r3512" type="CarDefault" departLane="random" />
	<vehicle id="v191" depart="541.35" route="r3510" type="CarDefault" departLane="random" />
	<vehicle id="v1929" depart="541.94" route="r3511" type="CarDefault" departLane="random" />
	<vehicle id="v192" depart="546.77" route="r3510" type="CarDefault" departLane="random" />
	<vehicle id="v1930" depart="546.77" route="r3511" type="CarDefault" departLane="random" />