<?xml version='1.0' encoding='utf-8'?>
<routes>
	<vType accel="3.0" decel="6.0" id="CarDefault" length="5.0" minGap="2.5" maxSpeed="50.0" sigma="0.5" />
	<route id="sr19211" edges="279 280 281 282 283 284 285 394 395 396 28 27 26 25 50" fromJunction="42" toJunction="11" />
	<route id="sr19212" edges="226 227 228 116 359 300 301 124 30 29 397 398 399 400 401 237 0" fromJunction="127" toJunction="117" />
	<route id="sr19213" edges="62 129 61 6 5 161 162 361 163 164 38 134 116 115 114 113 112 74 73 72 71 70 69 68" fromJunction="154" toJunction="42" />
	<vehicle id="v8580" depart="0.0" route="sr19211" type="CarDefault" departLane="random" />
	<vehicle id="v9714" depart="0.0" route="sr19212" type="CarDefault" departLane="random" />
	<vehicle id="v10474" depart="0.0" route="sr19213" type="CarDefault" departLane="random" />
	<vehicle id="v8581" depart="3.18" route="sr19211" type="CarDefault" departLane="random" />
	<vehicle id="v8582" depart="6.35" route="sr19211" type="CarDefault" departLane="random" />
	<vehicle id="v10475" depart="7.41" route="sr19213" type="CarDefault" departLane="random" />
	<vehicle id="v9715" depart="9.52" route="sr19212" type="CarDefault" departLane="random" />
	<vehicle id="v8583" depart="9.53" route="sr19211" type="CarDefault" departLane="random" />
	<vehicle id="v8584" depart="12.71" route="sr19211" type="CarDefault" departLane="random" />
	<vehicle id="v10476" depart="14.81" route="sr19213" type="CarDefault" departLane="random" />
	<vehicle id="v8585" depart="15.89" route="sr19211" type="CarDefault" departLane="random" />
	<vehicle id="v9716" depart="19.05" route="sr19212" type="CarDefault" departLane="random" />
	<vehicle id="v8586" depart="19.06" route="sr19211" type="CarDefault" departLane="random" />
	<vehicle id="v10477" depart="22.22" route="sr19213" type="CarDefault" departLane="random" />
	<vehicle id="v8587" depart="22.24" route="sr19211" type="CarDefault" departLane="random" />
	<vehicle id="v8588" depart="25.42" route="sr19211" type="CarDefault" departLane="random" />
	<vehicle id="v9717" depart="28.57" route="sr19212" type="CarDefault" departLane="random" />
	<vehicle id="v8589" depart="28.6" route="sr19211" type="CarDefault" departLane="random" />
	<vehicle id="v10478" depart="29.63" route="sr19213" type="CarDefault" departLane="random" />
	<vehicle id="v8590" depart="31.77" route="sr19211" type="CarDefault" departLane="random" />
	<vehicle id="v8591" depart="34.95" route="sr19211" type="CarDefault" departLane="random" />
	<vehicle id="v10479" depart="37.04" route="sr19213" type="CarDefault" departLane="random" />
	<vehicle id="v9718" depart="38.1" route="sr19212" type="CarDefault" departLane="random" />
	<vehicle id="v8592" depart="38.13" route="sr19211" type="CarDefault" departLane="random" />
	<vehicle id="v8593" depart="41.31" route="sr19211" type="CarDefault" departLane="random" />
	<vehicle id="v10480" depart="44.44" route="sr19213" type="CarDefault" departLane="random" />
	<vehicle id="v8594" depart="44.48" route="sr19211" type="CarDefault" departLane="random" />
	<vehicle id="v9719" depart="47.62" route="sr19212" type="CarDefault" departLane="random" />
	<vehicle id="v8595" depart="47.66" route="sr19211" type="CarDefault" departLane="random" />
	<vehicle id="v8596" depart="50.84" route="sr19211" type="CarDefault" departLane="random" />
	<vehicle id="v10481" depart="51.85" route="sr19213" type="CarDefault" departLane="random" />
	<vehicle id="v8597" depart="54.02" route="sr19211" type="CarDefault" departLane="random" />
	<vehicle id="v9720" depart="57.14" route="sr19212" type="CarDefault" departLane="random" />
	<vehicle id="v8598" depart="57.19" route="sr19211" type="CarDefault" departLane="random" />
	<vehicle id="v10482" depart="59.26" route="sr19213" type="CarDefault" departLane="random" />
	<vehicle id="v8599" depart="60.37" route="sr19211" type="CarDefault" departLane="random" />
	<vehicle id="v8600" depart="63.55" route="sr19211" type="CarDefault" departLane="random" />
	<vehicle id="v9721" depart="66.67" route="sr19212" type="CarDefault" departLane="random" />
	<vehicle id="v10483" depart="66.67" route="sr19213" type="CarDefault" departLane="random" />
	<vehicle id="v8601" depart="66.73" route="sr19211" type="CarDefault" departLane="random" />
	<vehicle id="v8504" depart="68" route="sr19211" type="CarDefault" departLane="random" />
	<vehicle id="v8602" depart="69.9" route="sr19211" type="CarDefault" departLane="random" />
	<vehicle id="v8603" depart="73.08" route="sr19211" type="CarDefault" departLane="random" />
	<vehicle id="v10484" depart="74.07" route="sr19213" type="CarDefault" departLane="random" />
	<vehicle id="v9722" depart="76.19" route="sr19212" type="CarDefault" departLane="random" />
	<vehicle id="v8604" depart="76.26" route="sr19211" type="CarDefault" departLane="random" />
	<vehicle id="v8605" depart="79.44" route="sr19211" type="CarDefault" departLane="random" />
	<vehicle id="v10485" depart="81.48" route="sr19213" type="CarDefault" departLane="random" />
	<vehicle id="v8606" depart="82.61" route="sr19211" type="CarDefault" departLane="random" />
	<vehicle id="v9723" depart="85.71" route="sr19212" type="CarDefault" departLane="random" />
	<vehicle id="v8607" depart="85.79" route="sr19211" type="CarDefault" departLane="random" />
	<vehicle id="v10486" depart="88.89" route="sr19213" type="CarDefault" departLane="random" />
	<vehicle id="v8608" depart="88.97" route="sr19211" type="CarDefault" departLane="random" />
	<vehicle id="v8609" depart="92.14" route="sr19211" type="CarDefault" departLane="random" />
	<vehicle id="v9724" depart="95.24" route="sr19212" type="CarDefault" departLane="random" />
	<vehicle id="v8610" depart="95.32" route="sr19211" type="CarDefault" departLane="random" />
	<vehicle id="v10487" depart="96.3" route="sr19213" type="CarDefault" departLane="random" />
	<vehicle id="v8611" depart="98.5" route="sr19211" type="CarDefault" departLane="random" />
	<vehicle id="v8612" depart="101.68" route="sr19211" type="CarDefault" departLane="random" />
	<vehicle id="v10488" depart="103.7" route="sr19213" type="CarDefault" departLane="random" />
	<vehicle id="v9725" depart="104.76" route="sr19212" type="CarDefault" departLane="random" />
	<vehicle id="v8613" depart="104.85" route="sr19211" type="CarDefault" departLane="random" />
	<vehicle id="v8614" depart="108.03" route="sr19211" type="CarDefault" departLane="random" />
	<vehicle id="v10489" depart="111.11" route="sr19213" type="CarDefault" departLane="random" />
	<vehicle id="v8615" depart="111.21" route="sr19211" type="CarDefault" departLane="random" />
	<vehicle id="v9726" depart="114.29" route="sr19212" type="CarDefault" departLane="random" />
	<vehicle id="v8616" depart="114.39" route="sr19211" type="CarDefault" departLane="random" />
	<vehicle id="v8617" depart="117.56" route="sr19211" type="CarDefault" departLane="random" />
	<vehicle id="v10490" depart="118.52" route="sr19213" type="CarDefault" departLane="random" />
	<vehicle id="v8505" depart="119" route="sr19211" type="CarDefault" departLane="random" />
	<vehicle id="v8618" depart="120.74" route="sr19211" type="CarDefault" departLane="random" />
	<vehicle id="v9727" depart="123.81" route="sr19212" type="CarDefault" departLane="random" />
	<vehicle id="v8619" depart="123.92" route="sr19211" type="CarDefault" departLane="random" />
	<vehicle id="v10491" depart="125.93" route="sr19213" type="CarDefault" departLane="random" />
	<vehicle id="v8620" depart="127.1" route="sr19211" type="CarDefault" departLane="random" />
	<vehicle id="v8621" depart="130.27" route="sr19211" type="CarDefault" departLane="random" />
	<vehicle id="v9728" depart="133.33" route="sr19212" type="CarDefault" departLane="random" />
	<vehicle id="v10492" depart="133.33" route="sr19213" type="CarDefault" departLane="random" />
	<vehicle id="v8622" depart="133.45" route="sr19211" type="CarDefault" departLane="random" />
	<vehicle id="v8623" depart="136.63" route="sr19211" type="CarDefault" departLane="random" />
	<vehicle id="v8624" depart="139.81" route="sr19211" type="CarDefault" departLane="random" />
	<vehicle id="v10493" depart="140.74" route="sr19213" type="CarDefault" departLane="random" />
	<vehicle id="v9729" depart="142.86" route="sr19212" type="CarDefault" departLane="random" />
	<vehicle id="v8625" depart="142.98" route="sr19211" type="CarDefault" departLane="random" />
	<vehicle id="v8626" depart="146.16" route="sr19211" type="CarDefault" departLane="random" />
	<vehicle id="v10494" depart="148.15" route="sr19213" type="CarDefault" departLane="random" />
	<vehicle id="v8627" depart="149.34" route="sr19211" type="CarDefault" departLane="random" />
	<vehicle id="v9730" depart="152.38" route="sr19212" type="CarDefault" departLane="random" />
	<vehicle id="v8628" depart="152.52" route="sr19211" type="CarDefault" departLane="random" />
	<vehicle id="v10495" depart="155.56" route="sr19213" type="CarDefault" departLane="random" />
	<vehicle id="v8629" depart="155.69" route="sr19211" type="CarDefault" departLane="random" />
	<vehicle id="v8506" depart="156" route="sr19211" type="CarDefault" departLane="random" />
	<vehicle id="v8630" depart="158.87" route="sr19211" type="CarDefault" departLane="random" />
	<vehicle id="v9731" depart="161.9" route="sr19212" type="CarDefault" departLane="random" />
	<vehicle id="v8631" depart="162.05" route="sr19211" type="CarDefault" departLane="random" />
	<vehicle id="v10496" depart="162.96" route="sr19213" type="CarDefault" departLane="random" />
	<vehicle id="v8632" depart="165.23" route="sr19211" type="CarDefault" departLane="random" />
	<vehicle id="v8633" depart="168.4" route="sr19211" type="CarDefault" departLane="random" />
	<vehicle id="v10497" depart="170.37" route="sr19213" type="CarDefault" departLane="random" />
	<vehicle id="v9732" depart="171.43" route="sr19212" type="CarDefault" departLane="random" />
	<vehicle id="v8634" depart="171.58" route="sr19211" type="CarDefault" departLane="random" />
	<vehicle id="v8635" depart="174.76" route="sr19211" type="CarDefault" departLane="random" />
	<vehicle id="v10498" depart="177.78" route="sr19213" type="CarDefault" departLane="random" />
	<vehicle id="v8636" depart="177.93" route="sr19211" type="CarDefault" departLane="random" />
	<vehicle id="v9733" depart="180.95" route="sr19212" type="CarDefault" departLane="random" />
	<vehicle id="v8637" depart="181.11" route="sr19211" type="CarDefault" departLane="random" />
	<vehicle id="v8638" depart="184.29" route="sr19211" type="CarDefault" departLane="random" />
	<vehicle id="v10499" depart="185.19" route="sr19213" type="CarDefault" departLane="random" />
	<vehicle id="v8639" depart="187.47" route="sr19211" type="CarDefault" departLane="random" />
	<vehicle id="v9734" depart="190.48" route="sr19212" type="CarDefault" departLane="random" />
	<vehicle id="v8640" depart="190.64" route="sr19211" type="CarDefault" departLane="random" />
	<vehicle id="v10500" depart="192.59" route="sr19213" type="CarDefault" departLane="random" />
	<vehicle id="v8641" depart="193.82" route="sr19211" type="CarDefault" departLane="random" />
	<vehicle id="v8642" depart="197.0" route="sr19211" type="CarDefault" departLane="random" />
	<vehicle id="v9735" depart="200.0" route="sr19212" type="CarDefault" departLane="random" />
	<vehicle id="v10501" depart="200.0" route="sr19213" type="CarDefault" departLane="random" />
	<vehicle id="v8643" depart="200.18" route="sr19211" type="CarDefault" departLane="random" />
	<vehicle id="v8644" depart="203.35" route="sr19211" type="CarDefault" departLane="random" />
	<vehicle id="v8645" depart="206.53" route="sr19211" type="CarDefault" departLane="random" />
	<vehicle id="v10502" depart="207.41" route="sr19213" type="CarDefault" departLane="random" />
	<vehicle id="v9736" depart="209.52" route="sr19212" type="CarDefault" departLane="random" />
	<vehicle id="v8646" depart="209.71" route="sr19211" type="CarDefault" departLane="random" />
	<vehicle id="v8647" depart="212.89" route="sr19211" type="CarDefault" departLane="random" />
	<vehicle id="v10503" depart="214.81" route="sr19213" type="CarDefault" departLane="random" />
	<vehicle id="v8648" depart="216.06" route="sr19211" type="CarDefault" departLane="random" />
	<vehicle id="v9737" depart="219.05" route="sr19212" type="CarDefault" departLane="random" />
	<vehicle id="v8649" depart="219.24" route="sr19211" type="CarDefault" departLane="random" />
	<vehicle id="v10504" depart="222.22" route="sr19213" type="CarDefault" departLane="random" />
	<vehicle id="v8650" depart="222.42" route="sr19211" type="CarDefault" departLane="random" />
	<vehicle id="v8651" depart="225.6" route="sr19211" type="CarDefault" departLane="random" />
	<vehicle id="v9738" depart="228.57" route="sr19212" type="CarDefault" departLane="random" />
	<vehicle id="v8652" depart="228.77" route="sr19211" type="CarDefault" departLane="random" />
	<vehicle id="v10505" depart="229.63" route="sr19213" type="CarDefault" departLane="random" />
	<vehicle id="v8653" depart="231.95" route="sr19211" type="CarDefault" departLane="random" />
	<vehicle id="v8507" depart="232" route="sr19211" type="CarDefault" departLane="random" />
	<vehicle id="v8654" depart="235.13" route="sr19211" type="CarDefault" departLane="random" />
	<vehicle id="v10506" depart="237.04" route="sr19213" type="CarDefault" departLane="random" />
	<vehicle id="v9739" depart="238.1" route="sr19212" type="CarDefault" departLane="random" />
	<vehicle id="v8655" depart="238.31" route="sr19211" type="CarDefault" departLane="random" />
	<vehicle id="v8508" depart="240" route="sr19211" type="CarDefault" departLane="random" />
	<vehicle id="v8656" depart="241.48" route="sr19211" type="CarDefault" departLane="random" />
	<vehicle id="v10507" depart="244.44" route="sr19213" type="CarDefault" departLane="random" />
	<vehicle id="v8657" depart="244.66" route="sr19211" type="CarDefault" departLane="random" />
	<vehicle id="v9740" depart="247.62" route="sr19212" type="CarDefault" departLane="random" />
	<vehicle id="v8658" depart="247.84" route="sr19211" type="CarDefault" departLane="random" />
	<vehicle id="v8659" depart="251.02" route="sr19211" type="CarDefault" departLane="random" />
	<vehicle id="v10508" depart="251.85" route="sr19213" type="CarDefault" departLane="random" />
	<vehicle id="v8660" depart="254.19" route="sr19211" type="CarDefault" departLane="random" />
	<vehicle id="v9741" depart="257.14" route="sr19212" type="CarDefault" departLane="random" />
	<vehicle id="v8661" depart="257.37" route="sr19211" type="CarDefault" departLane="random" />
	<vehicle id="v10509" depart="259.26" route="sr19213" type="CarDefault" departLane="random" />
	<vehicle id="v8662" depart="260.55" route="sr19211" type="CarDefault" departLane="random" />
	<vehicle id="v8663" depart="263.72" route="sr19211" type="CarDefault" departLane="random" />
	<vehicle id="v9742" depart="266.67" route="sr19212" type="CarDefault" departLane="random" />
	<vehicle id="v10510" depart="266.67" route="sr19213" type="CarDefault" departLane="random" />
	<vehicle id="v8664" depart="266.9" route="sr19211" type="CarDefault" departLane="random" />
	<vehicle id="v8665" depart="270.08" route="sr19211" type="CarDefault" departLane="random" />
	<vehicle id="v8666" depart="273.26" route="sr19211" type="CarDefault" departLane="random" />
	<vehicle id="v10511" depart="274.07" route="sr19213" type="CarDefault" departLane="random" />
	<vehicle id="v9743" depart="276.19" route="sr19212" type="CarDefault" departLane="random" />
	<vehicle id="v8667" depart="276.43" route="sr19211" type="CarDefault" departLane="random" />
	<vehicle id="v8668" depart="279.61" route="sr19211" type="CarDefault" departLane="random" />
	<vehicle id="v10512" depart="281.48" route="sr19213" type="CarDefault" departLane="random" />
	<vehicle id="v8669" depart="282.79" route="sr19211" type="CarDefault" departLane="random" />
	<vehicle id="v9744" depart="285.71" route="sr19212" type="CarDefault" departLane="random" />
	<vehicle id="v8670" depart="285.97" route="sr19211" type="CarDefault" departLane="random" />
	<vehicle id="v10513" depart="288.89" route="sr19213" type="CarDefault" departLane="random" />
	<vehicle id="v8671" depart="289.14" route="sr19211" type="CarDefault" departLane="random" />
	<vehicle id="v8672" depart="292.32" route="sr19211" type="CarDefault" departLane="random" />
	<vehicle id="v9745" depart="295.24" route="sr19212" type="CarDefault" departLane="random" />
	<vehicle id="v8673" depart="295.5" route="sr19211" type="CarDefault" departLane="random" />
	<vehicle id="v10514" depart="296.3" route="sr19213" type="CarDefault" departLane="random" />
	<vehicle id="v8674" depart="298.68" route="sr19211" type="CarDefault" departLane="random" />
	<vehicle id="v8675" depart="301.85" route="sr19211" type="CarDefault" departLane="random" />
	<vehicle id="v10515" depart="303.7" route="sr19213" type="CarDefault" departLane="random" />
	<vehicle id="v9746" depart="304.76" route="sr19212" type="CarDefault" departLane="random" />
	<vehicle id="v8676" depart="305.03" route="sr19211" type="CarDefault" departLane="random" />
	<vehicle id="v8677" depart="308.21" route="sr19211" type="CarDefault" departLane="random" />
	<vehicle id="v10516" depart="311.11" route="sr19213" type="CarDefault" departLane="random" />
	<vehicle id="v8678" depart="311.39" route="sr19211" type="CarDefault" departLane="random" />
	<vehicle id="v9747" depart="314.29" route="sr19212" type="CarDefault" departLane="random" />
	<vehicle id="v8679" depart="314.56" route="sr19211" type="CarDefault" departLane="random" />
	<vehicle id="v8680" depart="317.74" route="sr19211" type="CarDefault" departLane="random" />
	<vehicle id="v10517" depart="318.52" route="sr19213" type="CarDefault" departLane="random" />
	<vehicle id="v8681" depart="320.92" route="sr19211" type="CarDefault" departLane="random" />
	<vehicle id="v9748" depart="323.81" route="sr19212" type="CarDefault" departLane="random" />
	<vehicle id="v8682" depart="324.1" route="sr19211" type="CarDefault" departLane="random" />
	<vehicle id="v10518" depart="325.93" route="sr19213" type="CarDefault" departLane="random" />
	<vehicle id="v8683" depart="327.27" route="sr19211" type="CarDefault" departLane="random" />
	<vehicle id="v8684" depart="330.45" route="sr19211" type="CarDefault" departLane="random" />
	<vehicle id="v9749" depart="333.33" route="sr19212" type="CarDefault" departLane="random" />
	<vehicle id="v10519" depart="333.33" route="sr19213" type="CarDefault" departLane="random" />
	<vehicle id="v8685" depart="333.63" route="sr19211" type="CarDefault" departLane="random" />
	<vehicle id="v8686" depart="336.8" route="sr19211" type="CarDefault" departLane="random" />
	<vehicle id="v8687" depart="339.98" route="sr19211" type="CarDefault" departLane="random" />
	<vehicle id="v10520" depart="340.74" route="sr19213" type="CarDefault" departLane="random" />
	<vehicle id="v9750" depart="342.86" route="sr19212" type="CarDefault" departLane="random" />
	<vehicle id="v8688" depart="343.16" route="sr19211" type="CarDefault" departLane="random" />
	<vehicle id="v8689" depart="346.34" route="sr19211" type="CarDefault" departLane="random" />
	<vehicle id="v10521" depart="348.15" route="sr19213" type="CarDefault" departLane="random" />
	<vehicle id="v8690" depart="349.51" route="sr19211" type="CarDefault" departLane="random" />
	<vehicle id="v8509" depart="352" route="sr19211" type="CarDefault" departLane="random" />
	<vehicle id="v9751" depart="352.38" route="sr19212" type="CarDefault" departLane="random" />
	<vehicle id="v8691" depart="352.69" route="sr19211" type="CarDefault" departLane="random" />
	<vehicle id="v10522" depart="355.56" route="sr19213" type="CarDefault" departLane="random" />
	<vehicle id="v8692" depart="355.87" route="sr19211" type="CarDefault" departLane="random" />
	<vehicle id="v8693" depart="359.05" route="sr19211" type="CarDefault" departLane="random" />
	<vehicle id="v9752" depart="361.9" route="sr19212" type="CarDefault" departLane="random" />
	<vehicle id="v8694" depart="362.22" route="sr19211" type="CarDefault" departLane="random" />
	<vehicle id="v10523" depart="362.96" route="sr19213" type="CarDefault" departLane="random" />
	<vehicle id="v8695" depart="365.4" route="sr19211" type="CarDefault" departLane="random" />
	<vehicle id="v8696" depart="368.58" route="sr19211" type="CarDefault" departLane="random" />
	<vehicle id="v10524" depart="370.37" route="sr19213" type="CarDefault" departLane="random" />
	<vehicle id="v9753" depart="371.43" route="sr19212" type="CarDefault" departLane="random" />
	<vehicle id="v8697" depart="371.76" route="sr19211" type="CarDefault" departLane="random" />
	<vehicle id="v8698" depart="374.93" route="sr19211" type="CarDefault" departLane="random" />
	<vehicle id="v10525" depart="377.78" route="sr19213" type="CarDefault" departLane="random" />
	<vehicle id="v8699" depart="378.11" route="sr19211" type="CarDefault" departLane="random" />
	<vehicle id="v9754" depart="380.95" route="sr19212" type="CarDefault" departLane="random" />
	<vehicle id="v8700" depart="381.29" route="sr19211" type="CarDefault" departLane="random" />
	<vehicle id="v8701" depart="384.47" route="sr19211" type="CarDefault" departLane="random" />
	<vehicle id="v10526" depart="385.19" route="sr19213" type="CarDefault" departLane="random" />
	<vehicle id="v8702" depart="387.64" route="sr19211" type="CarDefault" departLane="random" />
	<vehicle id="v9755" depart="390.48" route="sr19212" type="CarDefault" departLane="random" />
	<vehicle id="v8703" depart="390.82" route="sr19211" type="CarDefault" departLane="random" />
	<vehicle id="v10527" depart="392.59" route="sr19213" type="CarDefault" departLane="random" />
	<vehicle id="v8704" depart="394.0" route="sr19211" type="CarDefault" departLane="random" />
	<vehicle id="v8705" depart="397.18" route="sr19211" type="CarDefault" departLane="random" />
	<vehicle id="v9756" depart="400.0" route="sr19212" type="CarDefault" departLane="random" />
	<vehicle id="v10528" depart="400.0" route="sr19213" type="CarDefault" departLane="random" />
	<vehicle id="v8706" depart="400.35" route="sr19211" type="CarDefault" departLane="random" />
	<vehicle id="v8707" depart="403.53" route="sr19211" type="CarDefault" departLane="random" />
	<vehicle id="v8708" depart="406.71" route="sr19211" type="CarDefault" departLane="random" />
	<vehicle id="v10529" depart="407.41" route="sr19213" type="CarDefault" departLane="random" />
	<vehicle id="v9757" depart="409.52" route="sr19212" type="CarDefault" departLane="random" />
	<vehicle id="v8709" depart="409.89" route="sr19211" type="CarDefault" departLane="random" />
	<vehicle id="v8710" depart="413.06" route="sr19211" type="CarDefault" departLane="random" />
	<vehicle id="v10530" depart="414.81" route="sr19213" type="CarDefault" departLane="random" />
	<vehicle id="v8711" depart="416.24" route="sr19211" type="CarDefault" departLane="random" />
	<vehicle id="v9758" depart="419.05" route="sr19212" type="CarDefault" departLane="random" />
	<vehicle id="v8712" depart="419.42" route="sr19211" type="CarDefault" departLane="random" />
	<vehicle id="v8510" depart="420" route="sr19211" type="CarDefault" departLane="random" />
	<vehicle id="v10531" depart="422.22" route="sr19213" type="CarDefault" departLane="random" />
	<vehicle id="v8713" depart="422.59" route="sr19211" type="CarDefault" departLane="random" />
	<vehicle id="v8714" depart="425.77" route="sr19211" type="CarDefault" departLane="random" />
	<vehicle id="v9759" depart="428.57" route="sr19212" type="CarDefault" departLane="random" />
	<vehicle id="v8715" depart="428.95" route="sr19211" type="CarDefault" departLane="random" />
	<vehicle id="v10532" depart="429.63" route="sr19213" type="CarDefault" departLane="random" />
	<vehicle id="v8716" depart="432.13" route="sr19211" type="CarDefault" departLane="random" />
	<vehicle id="v8717" depart="435.3" route="sr19211" type="CarDefault" departLane="random" />
	<vehicle id="v10533" depart="437.04" route="sr19213" type="CarDefault" departLane="random" />
	<vehicle id="v9760" depart="438.1" route="sr19212" type="CarDefault" departLane="random" />
	<vehicle id="v8718" depart="438.48" route="sr19211" type="CarDefault" departLane="random" />
	<vehicle id="v8719" depart="441.66" route="sr19211" type="CarDefault" departLane="random" />
	<vehicle id="v10534" depart="444.44" route="sr19213" type="CarDefault" departLane="random" />
	<vehicle id="v8720" depart="444.84" route="sr19211" type="CarDefault" departLane="random" />
	<vehicle id="v9761" depart="447.62" route="sr19212" type="CarDefault" departLane="random" />
	<vehicle id="v8721" depart="448.01" route="sr19211" type="CarDefault" departLane="random" />
	<vehicle id="v8722" depart="451.19" route="sr19211" type="CarDefault" departLane="random" />
	<vehicle id="v10535" depart="451.85" route="sr19213" type="CarDefault" departLane="random" />
	<vehicle id="v8723" depart="454.37" route="sr19211" type="CarDefault" departLane="random" />
	<vehicle id="v9762" depart="457.14" route="sr19212" type="CarDefault" departLane="random" />
	<vehicle id="v8724" depart="457.55" route="sr19211" type="CarDefault" departLane="random" />
	<vehicle id="v10536" depart="459.26" route="sr19213" type="CarDefault" departLane="random" />
	<vehicle id="v8725" depart="460.72" route="sr19211" type="CarDefault" departLane="random" />
	<vehicle id="v8726" depart="463.9" route="sr19211" type="CarDefault" departLane="random" />
	<vehicle id="v9763" depart="466.67" route="sr19212" type="CarDefault" departLane="random" />
	<vehicle id="v10537" depart="466.67" route="sr19213" type="CarDefault" departLane="random" />
	<vehicle id="v8727" depart="467.08" route="sr19211" type="CarDefault" departLane="random" />
	<vehicle id="v8728" depart="470.26" route="sr19211" type="CarDefault" departLane="random" />
	<vehicle id="v8729" depart="473.43" route="sr19211" type="CarDefault" departLane="random" />
	<vehicle id="v10538" depart="474.07" route="sr19213" type="CarDefault" departLane="random" />
	<vehicle id="v9764" depart="476.19" route="sr19212" type="CarDefault" departLane="random" />
	<vehicle id="v8730" depart="476.61" route="sr19211" type="CarDefault" departLane="random" />
	<vehicle id="v8731" depart="479.79" route="sr19211" type="CarDefault" departLane="random" />
	<vehicle id="v10539" depart="481.48" route="sr19213" type="CarDefault" departLane="random" />
	<vehicle id="v8732" depart="482.97" route="sr19211" type="CarDefault" departLane="random" />
	<vehicle id="v9765" depart="485.71" route="sr19212" type="CarDefault" departLane="random" />
	<vehicle id="v8733" depart="486.14" route="sr19211" type="CarDefault" departLane="random" />
	<vehicle id="v10540" depart="488.89" route="sr19213" type="CarDefault" departLane="random" />
	<vehicle id="v8734" depart="489.32" route="sr19211" type="CarDefault" departLane="random" />
	<vehicle id="v8735" depart="492.5" route="sr19211" type="CarDefault" departLane="random" />
	<vehicle id="v9766" depart="495.24" route="sr19212" type="CarDefault" departLane="random" />
	<vehicle id="v8736" depart="495.68" route="sr19211" type="CarDefault" departLane="random" />
	<vehicle id="v10541" depart="496.3" route="sr19213" type="CarDefault" departLane="random" />
	<vehicle id="v8737" depart="498.85" route="sr19211" type="CarDefault" departLane="random" />
	<vehicle id="v8738" depart="502.03" route="sr19211" type="CarDefault" departLane="random" />
	<vehicle id="v10542" depart="503.7" route="sr19213" type="CarDefault" departLane="random" />
	<vehicle id="v9767" depart="504.76" route="sr19212" type="CarDefault" departLane="random" />
	<vehicle id="v8739" depart="505.21" route="sr19211" type="CarDefault" departLane="random" />
	<vehicle id="v8740" depart="508.38" route="sr19211" type="CarDefault" departLane="random" />
	<vehicle id="v10543" depart="511.11" route="sr19213" type="CarDefault" departLane="random" />
	<vehicle id="v8741" depart="511.56" route="sr19211" type="CarDefault" departLane="random" />
	<vehicle id="v9768" depart="514.29" route="sr19212" type="CarDefault" departLane="random" />
	<vehicle id="v8742" depart="514.74" route="sr19211" type="CarDefault" departLane="random" />
	<vehicle id="v8743" depart="517.92" route="sr19211" type="CarDefault" departLane="random" />
	<vehicle id="v10544" depart="518.52" route="sr19213" type="CarDefault" departLane="random" />
	<vehicle id="v8744" depart="521.09" route="sr19211" type="CarDefault" departLane="random" />
	<vehicle id="v9769" depart="523.81" route="sr19212" type="CarDefault" departLane="random" />
	<vehicle id="v8745" depart="524.27" route="sr19211" type="CarDefault" departLane="random" />
	<vehicle id="v10545" depart="525.93" route="sr19213" type="CarDefault" departLane="random" />
	<vehicle id="v8746" depart="527.45" route="sr19211" type="CarDefault" departLane="random" />
	<vehicle id="v8747" depart="530.63" route="sr19211" type="CarDefault" departLane="random" />
	<vehicle id="v9770" depart="533.33" route="sr19212" type="CarDefault" departLane="random" />
	<vehicle id="v10546" depart="533.33" route="sr19213" type="CarDefault" departLane="random" />
	<vehicle id="v8748" depart="533.8" route="sr19211" type="CarDefault" departLane="random" />
	<vehicle id="v8749" depart="536.98" route="sr19211" type="CarDefault" departLane="random" />
	<vehicle id="v8750" depart="540.16" route="sr19211" type="CarDefault" departLane="random" />
	<vehicle id="v10547" depart="540.74" route="sr19213" type="CarDefault" departLane="random" />
	<vehicle id="v9771" depart="542.86" route="sr19212" type="CarDefault" departLane="random" />
	<vehicle id="v8751" depart="543.34" route="sr19211" type="CarDefault" departLane="random" />
	<vehicle id="v8752" depart="546.51" route="sr19211" type="CarDefault" departLane="random" />
	<vehicle id="v10548" depart="548.15" route="sr19213" type="CarDefault" departLane="random" />