<?xml version='1.0' encoding='utf-8'?>
<routes>
	<vType accel="3.0" decel="6.0" id="CarDefault" length="5.0" minGap="2.5" maxSpeed="50.0" sigma="0.5" />
	<route id="sr13194" edges="278 93 92 415 650 623 624 625 356 616 585 586 641 357 622 556 626 591 398 541 542 578 391 34 33 229 220 3 2 224 223 306 543 544 350 602 370 371 372 373 445" fromJunction="246" toJunction="139" />
	<route id="r18019" edges="278 93 92 415 334 279 248 170 217 583 584 596 597 598 572 595 622 556 626 591 398 541 542 578 391 34 33 229 220 3 2 224 223 306 543 544 350 602 370 371 372 373 445" fromJunction="246" toJunction="139" />
	<route id="sr13193" edges="611 612 425 358 359 360 410 411 441 442 443 444 438 439 440 329 559 560 561 541 542 578 391 85 84 250 249 396" fromJunction="227" toJunction="295" />
	<route id="r18017" edges="52 183 1 89 231 260 193 194 213 212 237 236 235 225 9 8 110 103 102 276 196 195 252 58 38" fromJunction="243" toJunction="68" />
	<route id="r18018" edges="611 612 425 358 359 360 410 414 535 361 408 525 570 571 424 291 292 583 584 596 597 598 572 595 622 556 626 591 398 541 542 578 391 85 84 250 249 396" fromJunction="227" toJunction="295" />
	<route id="sr13195" edges="52 183 199 198 197 36 243 311 312 24 111 10 110 103 102 276 196 195 252 58 38" fromJunction="243" toJunction="68" />
	<vehicle id="v5221" depart="0.0" route="sr13193" type="CarDefault" departLane="random" />
	<vehicle id="v6136" depart="0.0" route="sr13194" type="CarDefault" departLane="random" />
	<vehicle id="v7226" depart="0.0" route="sr13195" type="CarDefault" departLane="random" />
	<vehicle id="v6137" depart="3.61" route="sr13194" type="CarDefault" departLane="random" />
	<vehicle id="v5222" depart="4.42" route="sr13193" type="CarDefault" departLane="random" />
	<vehicle id="v7227" depart="5.2" route="sr13195" type="CarDefault" departLane="random" />
	<vehicle id="v6037" depart="7" route="sr13194" type="CarDefault" departLane="random" />
	<vehicle id="v6138" depart="7.21" route="sr13194" type="CarDefault" departLane="random" />
	<vehicle id="v5223" depart="8.83" route="sr13193" type="CarDefault" departLane="random" />
	<vehicle id="v7228" depart="10.4" route="sr13195" type="CarDefault" departLane="random" />
	<vehicle id="v6139" depart="10.82" route="sr13194" type="CarDefault" departLane="random" />
	<vehicle id="v5224" depart="13.25" route="sr13193" type="CarDefault" departLane="random" />
	<vehicle id="v6140" depart="14.43" route="sr13194" type="CarDefault" departLane="random" />
	<vehicle id="v7229" depart="15.61" route="sr13195" type="CarDefault" departLane="random" />
	<vehicle id="v5225" depart="17.67" route="sr13193" type="CarDefault" departLane="random" />
	<vehicle id="v6141" depart="18.04" route="sr13194" type="CarDefault" departLane="random" />
	<vehicle id="v7135" depart="20" route="sr13195" type="CarDefault" departLane="random" />
	<vehicle id="v7230" depart="20.81" route="sr13195" type="CarDefault" departLane="random" />
	<vehicle id="v6142" depart="21.64" route="sr13194" type="CarDefault" departLane="random" />
	<vehicle id="v5226" depart="22.09" route="sr13193" type="CarDefault" departLane="random" />
	<vehicle id="v6143" depart="25.25" route="sr13194" type="CarDefault" departLane="random" />
	<vehicle id="v7231" depart="26.01" route="sr13195" type="CarDefault" departLane="random" />
	<vehicle id="v5227" depart="26.5" route="sr13193" type="CarDefault" departLane="random" />
	<vehicle id="v6144" depart="28.86" route="sr13194" type="CarDefault" departLane="random" />
	<vehicle id="v5134" depart="30" route="r18018" type="CarDefault" departLane="random" />
	<vehicle id="v5228" depart="30.92" route="r18018" type="CarDefault" departLane="random" />
	<vehicle id="v7232" depart="31.21" route="r18017" type="CarDefault" departLane="random" />
	<vehicle id="v6145" depart="32.46" route="r18019" type="CarDefault" departLane="random" />
	<vehicle id="v5229" depart="35.34" route="r18018" type="CarDefault" departLane="random" />
	<vehicle id="v6146" depart="36.07" route="r18019" type="CarDefault" departLane="random" />
	<vehicle id="v7233" depart="36.42" route="r18017" type="CarDefault" departLane="random" />
	<vehicle id="v6147" depart="39.68" route="r18019" type="CarDefault" departLane="random" />
	<vehicle id="v5230" depart="39.75" route="r18018" type="CarDefault" departLane="random" />
	<vehicle id="v7234" depart="41.62" route="r18017" type="CarDefault" departLane="random" />
	<vehicle id="v6148" depart="43.29" route="r18019" type="CarDefault" departLane="random" />
	<vehicle id="v5231" depart="44.17" route="r18018" type="CarDefault" departLane="random" />
	<vehicle id="v7235" depart="46.82" route="r18017" type="CarDefault" departLane="random" />
	<vehicle id="v6149" depart="46.89" route="r18019" type="CarDefault" departLane="random" />
	<vehicle id="v5232" depart="48.59" route="r18018" type="CarDefault" departLane="random" />
	<vehicle id="v6150" depart="50.5" route="r18019" type="CarDefault" departLane="random" />
	<vehicle id="v7236" depart="52.02" route="r18017" type="CarDefault" departLane="random" />
	<vehicle id="v5233" depart="53.01" route="r18018" type="CarDefault" departLane="random" />
	<vehicle id="v6151" depart="54.11" route="r18019" type="CarDefault" departLane="random" />
	<vehicle id="v7237" depart="57.23" route="r18017" type="CarDefault" departLane="random" />
	<vehicle id="v5234" depart="57.42" route="r18018" type="CarDefault" departLane="random" />
	<vehicle id="v6152" depart="57.72" route="r18019" type="CarDefault" departLane="random" />
	<vehicle id="v5135" depart="60" route="sr13193" type="CarDefault" departLane="random" />
	<vehicle id="v6153" depart="61.32" route="sr13194" type="CarDefault" departLane="random" />
	<vehicle id="v5235" depart="61.84" route="sr13193" type="CarDefault" departLane="random" />
	<vehicle id="v7238" depart="62.43" route="sr13195" type="CarDefault" departLane="random" />
	<vehicle id="v6154" depart="64.93" route="sr13194" type="CarDefault" departLane="random" />
	<vehicle id="v5236" depart="66.26" route="sr13193" type="CarDefault" departLane="random" />
	<vehicle id="v7239" depart="67.63" route="sr13195" type="CarDefault" departLane="random" />
	<vehicle id="v6155" depart="68.54" route="sr13194" type="CarDefault" departLane="random" />
	<vehicle id="v5237" depart="70.67" route="sr13193" type="CarDefault" departLane="random" />
	<vehicle id="v6156" depart="72.14" route="sr13194" type="CarDefault" departLane="random" />
	<vehicle id="v7240" depart="72.83" route="sr13195" type="CarDefault" departLane="random" />
	<vehicle id="v6038" depart="75" route="sr13194" type="CarDefault" departLane="random" />
	<vehicle id="v5238" depart="75.09" route="sr13193" type="CarDefault" departLane="random" />
	<vehicle id="v6157" depart="75.75" route="sr13194" type="CarDefault" departLane="random" />
	<vehicle id="v7241" depart="78.03" route="sr13195" type="CarDefault" departLane="random" />
	<vehicle id="v6158" depart="79.36" route="sr13194" type="CarDefault" departLane="random" />
	<vehicle id="v5239" depart="79.51" route="sr13193" type="CarDefault" departLane="random" />
	<vehicle id="v6159" depart="82.97" route="sr13194" type="CarDefault" departLane="random" />
	<vehicle id="v7242" depart="83.24" route="sr13195" type="CarDefault" departLane="random" />
	<vehicle id="v5240" depart="83.93" route="sr13193" type="CarDefault" departLane="random" />
	<vehicle id="v5136" depart="85" route="sr13193" type="CarDefault" departLane="random" />
	<vehicle id="v6160" depart="86.57" route="sr13194" type="CarDefault" departLane="random" />
	<vehicle id="v5241" depart="88.34" route="sr13193" type="CarDefault" departLane="random" />
	<vehicle id="v7243" depart="88.44" route="sr13195" type="CarDefault" departLane="random" />
	<vehicle id="v6161" depart="90.18" route="sr13194" type="CarDefault" departLane="random" />
	<vehicle id="v5242" depart="92.76" route="sr13193" type="CarDefault" departLane="random" />
	<vehicle id="v7136" depart="93" route="sr13195" type="CarDefault" departLane="random" />
	<vehicle id="v7244" depart="93.64" route="sr13195" type="CarDefault" departLane="random" />
	<vehicle id="v6162" depart="93.79" route="sr13194" type="CarDefault" departLane="random" />
	<vehicle id="v6039" depart="95" route="sr13194" type="CarDefault" departLane="random" />
	<vehicle id="v5243" depart="97.18" route="sr13193" type="CarDefault" departLane="random" />
	<vehicle id="v6163" depart="97.39" route="sr13194" type="CarDefault" departLane="random" />
	<vehicle id="v7245" depart="98.84" route="sr13195" type="CarDefault" departLane="random" />
	<vehicle id="v6164" depart="101.0" route="sr13194" type="CarDefault" departLane="random" />
	<vehicle id="v5244" depart="101.6" route="sr13193" type="CarDefault" departLane="random" />
	<vehicle id="v7246" depart="104.05" route="sr13195" type="CarDefault" departLane="random" />
	<vehicle id="v6165" depart="104.61" route="sr13194" type="CarDefault" departLane="random" />
	<vehicle id="v5245" depart="106.01" route="sr13193" type="CarDefault" departLane="random" />
	<vehicle id="v5137" depart="107" route="sr13193" type="CarDefault" departLane="random" />
	<vehicle id="v6166" depart="108.22" route="sr13194" type="CarDefault" departLane="random" />
	<vehicle id="v7247" depart="109.25" route="sr13195" type="CarDefault" departLane="random" />
	<vehicle id="v5246" depart="110.43" route="sr13193" type="CarDefault" departLane="random" />
	<vehicle id="v6167" depart="111.82" route="sr13194" type="CarDefault" departLane="random" />
	<vehicle id="v7248" depart="114.45" route="sr13195" type="CarDefault" departLane="random" />
	<vehicle id="v5247" depart="114.85" route="sr13193" type="CarDefault" departLane="random" />
	<vehicle id="v6168" depart="115.43" route="sr13194" type="CarDefault" departLane="random" />
	<vehicle id="v7137" depart="116" route="sr13195" type="CarDefault" departLane="random" />
	<vehicle id="v6169" depart="119.04" route="sr13194" type="CarDefault" departLane="random" />
	<vehicle id="v5248" depart="119.26" route="sr13193" type="CarDefault" departLane="random" />
	<vehicle id="v7249" depart="119.65" route="sr13195" type="CarDefault" departLane="random" />
	<vehicle id="v6170" depart="122.65" route="r18019" type="CarDefault" departLane="random" />
	<vehicle id="v5249" depart="123.68" route="r18018" type="CarDefault" departLane="random" />
	<vehicle id="v7250" depart="124.86" route="r18017" type="CarDefault" departLane="random" />
	<vehicle id="v6171" depart="126.25" route="r18019" type="CarDefault" departLane="random" />
	<vehicle id="v5250" depart="128.1" route="r18018" type="CarDefault" departLane="random" />
	<vehicle id="v6172" depart="129.86" route="r18019" type="CarDefault" departLane="random" />
	<vehicle id="v7251" depart="130.06" route="r18017" type="CarDefault" departLane="random" />
	<vehicle id="v6040" depart="132" route="r18019" type="CarDefault" departLane="random" />
	<vehicle id="v5251" depart="132.52" route="r18018" type="CarDefault" departLane="random" />
	<vehicle id="v6173" depart="133.47" route="r18019" type="CarDefault" departLane="random" />
	<vehicle id="v7252" depart="135.26" route="r18017" type="CarDefault" departLane="random" />
	<vehicle id="v5252" depart="136.93" route="r18018" type="CarDefault" departLane="random" />
	<vehicle id="v6174" depart="137.07" route="r18019" type="CarDefault" departLane="random" />
	<vehicle id="v7253" depart="140.46" route="r18017" type="CarDefault" departLane="random" />
	<vehicle id="v6175" depart="140.68" route="r18019" type="CarDefault" departLane="random" />
	<vehicle id="v5253" depart="141.35" route="r18018" type="CarDefault" departLane="random" />
	<vehicle id="v6176" depart="144.29" route="r18019" type="CarDefault" departLane="random" />
	<vehicle id="v7138" depart="145" route="r18017" type="CarDefault" departLane="random" />
	<vehicle id="v7254" depart="145.66" route="r18017" type="CarDefault" departLane="random" />
	<vehicle id="v5254" depart="145.77" route="r18018" type="CarDefault" departLane="random" />
	<vehicle id="v6177" depart="147.9" route="r18019" type="CarDefault" departLane="random" />
	<vehicle id="v5255" depart="150.18" route="r18018" type="CarDefault" departLane="random" />
	<vehicle id="v7255" depart="150.87" route="r18017" type="CarDefault" departLane="random" />
	<vehicle id="v6178" depart="151.5" route="r18019" type="CarDefault" departLane="random" />
	<vehicle id="v5256" depart="154.6" route="r18018" type="CarDefault" departLane="random" />
	<vehicle id="v6179" depart="155.11" route="r18019" type="CarDefault" departLane="random" />
	<vehicle id="v7256" depart="156.07" route="r18017" type="CarDefault" departLane="random" />
	<vehicle id="v6180" depart="158.72" route="r18019" type="CarDefault" departLane="random" />
	<vehicle id="v5257" depart="159.02" route="r18018" type="CarDefault" departLane="random" />
	<vehicle id="v7257" depart="161.27" route="r18017" type="CarDefault" departLane="random" />
	<vehicle id="v6181" depart="162.32" route="r18019" type="CarDefault" departLane="random" />
	<vehicle id="v5258" depart="163.44" route="r18018" type="CarDefault" departLane="random" />
	<vehicle id="v6041" depart="164" route="r18019" type="CarDefault" departLane="random" />
	<vehicle id="v6182" depart="165.93" route="r18019" type="CarDefault" departLane="random" />
	<vehicle id="v7258" depart="166.47" route="r18017" type="CarDefault" departLane="random" />
	<vehicle id="v5259" depart="167.85" route="r18018" type="CarDefault" departLane="random" />
	<vehicle id="v6183" depart="169.54" route="r18019" type="CarDefault" departLane="random" />
	<vehicle id="v7259" depart="171.68" route="r18017" type="CarDefault" departLane="random" />
	<vehicle id="v5260" depart="172.27" route="r18018" type="CarDefault" departLane="random" />
	<vehicle id="v6184" depart="173.15" route="r18019" type="CarDefault" departLane="random" />
	<vehicle id="v5261" depart="176.69" route="r18018" type="CarDefault" departLane="random" />
	<vehicle id="v6185" depart="176.75" route="r18019" type="CarDefault" departLane="random" />
	<vehicle id="v7260" depart="176.88" route="r18017" type="CarDefault" departLane="random" />
	<vehicle id="v6186" depart="180.36" route="sr13194" type="CarDefault" departLane="random" />
	<vehicle id="v5262" depart="181.1" route="sr13193" type="CarDefault" departLane="random" />
	<vehicle id="v7261" depart="182.08" route="sr13195" type="CarDefault" departLane="random" />
	<vehicle id="v6187" depart="183.97" route="sr13194" type="CarDefault" departLane="random" />
	<vehicle id="v5263" depart="185.52" route="sr13193" type="CarDefault" departLane="random" />
	<vehicle id="v7262" depart="187.28" route="sr13195" type="CarDefault" departLane="random" />
	<vehicle id="v6188" depart="187.58" route="sr13194" type="CarDefault" departLane="random" />
	<vehicle id="v5264" depart="189.94" route="sr13193" type="CarDefault" departLane="random" />
	<vehicle id="v6042" depart="191" route="sr13194" type="CarDefault" departLane="random" />
	<vehicle id="v6189" depart="191.18" route="sr13194" type="CarDefault" departLane="random" />
	<vehicle id="v7263" depart="192.49" route="sr13195" type="CarDefault" departLane="random" />
	<vehicle id="v5265" depart="194.36" route="sr13193" type="CarDefault" departLane="random" />
	<vehicle id="v6190" depart="194.79" route="sr13194" type="CarDefault" departLane="random" />
	<vehicle id="v7264" depart="197.69" route="sr13195" type="CarDefault" departLane="random" />
	<vehicle id="v6191" depart="198.4" route="sr13194" type="CarDefault" departLane="random" />
	<vehicle id="v5266" depart="198.77" route="sr13193" type="CarDefault" departLane="random" />
	<vehicle id="v5138" depart="199" route="sr13193" type="CarDefault" departLane="random" />
	<vehicle id="v6192" depart="202.0" route="sr13194" type="CarDefault" departLane="random" />
	<vehicle id="v7265" depart="202.89" route="sr13195" type="CarDefault" departLane="random" />
	<vehicle id="v5267" depart="203.19" route="sr13193" type="CarDefault" departLane="random" />
	<vehicle id="v6193" depart="205.61" route="sr13194" type="CarDefault" departLane="random" />
	<vehicle id="v5268" depart="207.61" route="sr13193" type="CarDefault" departLane="random" />
	<vehicle id="v7266" depart="208.09" route="sr13195" type="CarDefault" departLane="random" />
	<vehicle id="v7139" depart="209" route="sr13195" type="CarDefault" departLane="random" />
	<vehicle id="v6194" depart="209.22" route="sr13194" type="CarDefault" departLane="random" />
	<vehicle id="v5269" depart="212.02" route="sr13193" type="CarDefault" departLane="random" />
	<vehicle id="v6195" depart="212.83" route="sr13194" type="CarDefault" departLane="random" />
	<vehicle id="v7267" depart="213.29" route="sr13195" type="CarDefault" departLane="random" />
	<vehicle id="v6196" depart="216.43" route="sr13194" type="CarDefault" departLane="random" />
	<vehicle id="v5270" depart="216.44" route="sr13193" type="CarDefault" departLane="random" />
	<vehicle id="v7268" depart="218.5" route="sr13195" type="CarDefault" departLane="random" />
	<vehicle id="v6197" depart="220.04" route="sr13194" type="CarDefault" departLane="random" />
	<vehicle id="v5271" depart="220.86" route="sr13193" type="CarDefault" departLane="random" />
	<vehicle id="v6198" depart="223.65" route="sr13194" type="CarDefault" departLane="random" />
	<vehicle id="v7269" depart="223.7" route="sr13195" type="CarDefault" departLane="random" />
	<vehicle id="v5272" depart="225.28" route="sr13193" type="CarDefault" departLane="random" />
	<vehicle id="v6199" depart="227.25" route="sr13194" type="CarDefault" departLane="random" />
	<vehicle id="v7270" depart="228.9" route="sr13195" type="CarDefault" departLane="random" />
	<vehicle id="v5273" depart="229.69" route="sr13193" type="CarDefault" departLane="random" />
	<vehicle id="v6200" depart="230.86" route="sr13194" type="CarDefault" departLane="random" />
	<vehicle id="v6043" depart="232" route="sr13194" type="CarDefault" departLane="random" />
	<vehicle id="v7271" depart="234.1" route="sr13195" type="CarDefault" departLane="random" />
	<vehicle id="v5274" depart="234.11" route="sr13193" type="CarDefault" departLane="random" />
	<vehicle id="v6201" depart="234.47" route="sr13194" type="CarDefault" departLane="random" />
	<vehicle id="v6202" depart="238.08" route="sr13194" type="CarDefault" departLane="random" />
	<vehicle id="v5275" depart="238.53" route="sr13193" type="CarDefault" departLane="random" />
	<vehicle id="v7272" depart="239.31" route="sr13195" type="CarDefault" departLane="random" />
	<vehicle id="v6203" depart="241.68" route="sr13194" type="CarDefault" departLane="random" />
	<vehicle id="v5276" depart="242.94" route="sr13193" type="CarDefault" departLane="random" />
	<vehicle id="v7273" depart="244.51" route="sr13195" type="CarDefault" departLane="random" />
	<vehicle id="v6204" depart="245.29" route="sr13194" type="CarDefault" departLane="random" />
	<vehicle id="v5277" depart="247.36" route="sr13193" type="CarDefault" departLane="random" />
	<vehicle id="v6205" depart="248.9" route="sr13194" type="CarDefault" departLane="random" />
	<vehicle id="v7274" depart="249.71" route="sr13195" type="CarDefault" departLane="random" />
	<vehicle id="v7140" depart="250" route="sr13195" type="CarDefault" departLane="random" />
	<vehicle id="v5278" depart="251.78" route="sr13193" type="CarDefault" departLane="random" />
	<vehicle id="v6206" depart="252.51" route="sr13194" type="CarDefault" departLane="random" />
	<vehicle id="v7275" depart="254.91" route="sr13195" type="CarDefault" departLane="random" />
	<vehicle id="v6207" depart="256.11" route="sr13194" type="CarDefault" departLane="random" />
	<vehicle id="v5279" depart="256.2" route="sr13193" type="CarDefault" departLane="random" />
	<vehicle id="v6208" depart="259.72" route="sr13194" type="CarDefault" departLane="random" />
	<vehicle id="v7276" depart="260.12" route="sr13195" type="CarDefault" departLane="random" />
	<vehicle id="v5280" depart="260.61" route="sr13193" type="CarDefault" departLane="random" />
	<vehicle id="v6209" depart="263.33" route="sr13194" type="CarDefault" departLane="random" />
	<vehicle id="v5139" depart="264" route="sr13193" type="CarDefault" departLane="random" />
	<vehicle id="v5281" depart="265.03" route="sr13193" type="CarDefault" departLane="random" />
	<vehicle id="v7277" depart="265.32" route="sr13195" type="CarDefault" departLane="random" />
	<vehicle id="v6210" depart="266.93" route="sr13194" type="CarDefault" departLane="random" />
	<vehicle id="v5282" depart="269.45" route="sr13193" type="CarDefault" departLane="random" />
	<vehicle id="v7141" depart="270" route="sr13195" type="CarDefault" departLane="random" />
	<vehicle id="v7278" depart="270.52" route="sr13195" type="CarDefault" departLane="random" />
	<vehicle id="v6211" depart="270.54" route="sr13194" type="CarDefault" departLane="random" />
	<vehicle id="v5283" depart="273.87" route="sr13193" type="CarDefault" departLane="random" />
	<vehicle id="v6212" depart="274.15" route="sr13194" type="CarDefault" departLane="random" />
	<vehicle id="v7279" depart="275.72" route="sr13195" type="CarDefault" departLane="random" />
	<vehicle id="v6213" depart="277.76" route="sr13194" type="CarDefault" departLane="random" />
	<vehicle id="v5284" depart="278.28" route="sr13193" type="CarDefault" departLane="random" />
	<vehicle id="v6044" depart="280" route="sr13194" type="CarDefault" departLane="random" />
	<vehicle id="v7280" depart="280.92" route="sr13195" type="CarDefault" departLane="random" />
	<vehicle id="v6214" depart="281.36" route="sr13194" type="CarDefault" departLane="random" />
	<vehicle id="v5285" depart="282.7" route="sr13193" type="CarDefault" departLane="random" />
	<vehicle id="v6215" depart="284.97" route="sr13194" type="CarDefault" departLane="random" />
	<vehicle id="v7281" depart="286.13" route="sr13195" type="CarDefault" departLane="random" />
	<vehicle id="v5286" depart="287.12" route="sr13193" type="CarDefault" departLane="random" />
	<vehicle id="v6216" depart="288.58" route="sr13194" type="CarDefault" departLane="random" />
	<vehicle id="v7282" depart="291.33" route="sr13195" type="CarDefault" departLane="random" />
	<vehicle id="v5287" depart="291.53" route="sr13193" type="CarDefault" departLane="random" />
	<vehicle id="v6217" depart="292.18" route="sr13194" type="CarDefault" departLane="random" />
	<vehicle id="v6218" depart="295.79" route="sr13194" type="CarDefault" departLane="random" />
	<vehicle id="v5288" depart="295.95" route="sr13193" type="CarDefault" departLane="random" />
	<vehicle id="v7283" depart="296.53" route="sr13195" type="CarDefault" departLane="random" />
	<vehicle id="v6219" depart="299.4" route="sr13194" type="CarDefault" departLane="random" />
	<vehicle id="v5289" depart="300.37" route="r18018" type="CarDefault" departLane="random" />
	<vehicle id="v7284" depart="301.73" route="r18017" type="CarDefault" departLane="random" />
	<vehicle id="v6220" depart="303.01" route="r18019" type="CarDefault" departLane="random" />
	<vehicle id="v5290" depart="304.79" route="r18018" type="CarDefault" departLane="random" />
	<vehicle id="v6221" depart="306.61" route="r18019" type="CarDefault" departLane="random" />
	<vehicle id="v7285" depart="306.94" route="r18017" type="CarDefault" departLane="random" />
	<vehicle id="v5291" depart="309.2" route="r18018" type="CarDefault" departLane="random" />
	<vehicle id="v6222" depart="310.22" route="r18019" type="CarDefault" departLane="random" />
	<vehicle id="v7286" depart="312.14" route="r18017" type="CarDefault" departLane="random" />
	<vehicle id="v5292" depart="313.62" route="r18018" type="CarDefault" departLane="random" />
	<vehicle id="v6223" depart="313.83" route="r18019" type="CarDefault" departLane="random" />
	<vehicle id="v7287" depart="317.34" route="r18017" type="CarDefault" departLane="random" />
	<vehicle id="v6224" depart="317.43" route="r18019" type="CarDefault" departLane="random" />
	<vehicle id="v5293" depart="318.04" route="r18018" type="CarDefault" departLane="random" />
	<vehicle id="v6225" depart="321.04" route="r18019" type="CarDefault" departLane="random" />
	<vehicle id="v5294" depart="322.45" route="r18018" type="CarDefault" departLane="random" />
	<vehicle id="v7288" depart="322.54" route="r18017" type="CarDefault" departLane="random" />
	<vehicle id="v6226" depart="324.65" route="r18019" type="CarDefault" departLane="random" />
	<vehicle id="v5295" depart="326.87" route="r18018" type="CarDefault" departLane="random" />
	<vehicle id="v7289" depart="327.75" route="r18017" type="CarDefault" departLane="random" />
	<vehicle id="v6227" depart="328.26" route="r18019" type="CarDefault" departLane="random" />
	<vehicle id="v5296" depart="331.29" route="sr13193" type="CarDefault" departLane="random" />
	<vehicle id="v6228" depart="331.86" route="sr13194" type="CarDefault" departLane="random" />
	<vehicle id="v7290" depart="332.95" route="sr13195" type="CarDefault" departLane="random" />
	<vehicle id="v6229" depart="335.47" route="sr13194" type="CarDefault" departLane="random" />
	<vehicle id="v5297" depart="335.71" route="sr13193" type="CarDefault" departLane="random" />
	<vehicle id="v7291" depart="338.15" route="sr13195" type="CarDefault" departLane="random" />
	<vehicle id="v6230" depart="339.08" route="sr13194" type="CarDefault" departLane="random" />
	<vehicle id="v5298" depart="340.12" route="sr13193" type="CarDefault" departLane="random" />
	<vehicle id="v6231" depart="342.69" route="sr13194" type="CarDefault" departLane="random" />
	<vehicle id="v5140" depart="343" route="sr13193" type="CarDefault" departLane="random" />
	<vehicle id="v7292" depart="343.35" route="sr13195" type="CarDefault" departLane="random" />
	<vehicle id="v5299" depart="344.54" route="sr13193" type="CarDefault" departLane="random" />
	<vehicle id="v6232" depart="346.29" route="sr13194" type="CarDefault" departLane="random" />
	<vehicle id="v7293" depart="348.55" route="sr13195" type="CarDefault" departLane="random" />
	<vehicle id="v5300" depart="348.96" route="sr13193" type="CarDefault" departLane="random" />
	<vehicle id="v6233" depart="349.9" route="sr13194" type="CarDefault" departLane="random" />
	<vehicle id="v5301" depart="353.37" route="sr13193" type="CarDefault" departLane="random" />
	<vehicle id="v6234" depart="353.51" route="sr13194" type="CarDefault" departLane="random" />
	<vehicle id="v7294" depart="353.76" route="sr13195" type="CarDefault" departLane="random" />
	<vehicle id="v6235" depart="357.11" route="sr13194" type="CarDefault" departLane="random" />
	<vehicle id="v5302" depart="357.79" route="sr13193" type="CarDefault" departLane="random" />
	<vehicle id="v7295" depart="358.96" route="sr13195" type="CarDefault" departLane="random" />
	<vehicle id="v6236" depart="360.72" route="sr13194" type="CarDefault" departLane="random" />
	<vehicle id="v5303" depart="362.21" route="sr13193" type="CarDefault" departLane="random" />
	<vehicle id="v6045" depart="363" route="sr13194" type="CarDefault" departLane="random" />
	<vehicle id="v7296" depart="364.16" route="sr13195" type="CarDefault" departLane="random" />
	<vehicle id="v6237" depart="364.33" route="sr13194" type="CarDefault" departLane="random" />
	<vehicle id="v5304" depart="366.63" route="sr13193" type="CarDefault" departLane="random" />
	<vehicle id="v7142" depart="367" route="sr13195" type="CarDefault" departLane="random" />
	<vehicle id="v6238" depart="367.94" route="sr13194" type="CarDefault" departLane="random" />
	<vehicle id="v7297" depart="369.36" route="sr13195" type="CarDefault" departLane="random" />
	<vehicle id="v5305" depart="371.04" route="sr13193" type="CarDefault" departLane="random" />
	<vehicle id="v6239" depart="371.54" route="sr13194" type="CarDefault" departLane="random" />
	<vehicle id="v7298" depart="374.57" route="sr13195" type="CarDefault" departLane="random" />
	<vehicle id="v5141" depart="375" route="sr13193" type="CarDefault" departLane="random" />
	<vehicle id="v6240" depart="375.15" route="sr13194" type="CarDefault" departLane="random" />
	<vehicle id="v5306" depart="375.46" route="sr13193" type="CarDefault" departLane="random" />
	<vehicle id="v6241" depart="378.76" route="sr13194" type="CarDefault" departLane="random" />
	<vehicle id="v7299" depart="379.77" route="sr13195" type="CarDefault" departLane="random" />
	<vehicle id="v5307" depart="379.88" route="sr13193" type="CarDefault" departLane="random" />
	<vehicle id="v6242" depart="382.36" route="sr13194" type="CarDefault" departLane="random" />
	<vehicle id="v5308" depart="384.29" route="sr13193" type="CarDefault" departLane="random" />
	<vehicle id="v7300" depart="384.97" route="sr13195" type="CarDefault" departLane="random" />
	<vehicle id="v7143" depart="385" route="sr13195" type="CarDefault" departLane="random" />
	<vehicle id="v6243" depart="385.97" route="sr13194" type="CarDefault" departLane="random" />
	<vehicle id="v5309" depart="388.71" route="sr13193" type="CarDefault" departLane="random" />
	<vehicle id="v6244" depart="389.58" route="sr13194" type="CarDefault" departLane="random" />
	<vehicle id="v7301" depart="390.17" route="r18017" type="CarDefault" departLane="random" />
	<vehicle id="v5310" depart="393.13" route="r18018" type="CarDefault" departLane="random" />
	<vehicle id="v6245" depart="393.19" route="r18019" type="CarDefault" departLane="random" />
	<vehicle id="v7302" depart="395.38" route="r18017" type="CarDefault" departLane="random" />
	<vehicle id="v6246" depart="396.79" route="r18019" type="CarDefault" departLane="random" />
	<vehicle id="v5311" depart="397.55" route="r18018" type="CarDefault" departLane="random" />
	<vehicle id="v6247" depart="400.4" route="r18019" type="CarDefault" departLane="random" />
	<vehicle id="v7303" depart="400.58" route="r18017" type="CarDefault" departLane="random" />
	<vehicle id="v5312" depart="401.96" route="r18018" type="CarDefault" departLane="random" />