<?xml version='1.0' encoding='utf-8'?>
<net xmlns:xsi="http://www.w3.org/2001/XMLSchema-instance" version="1.9" junctionCornerDetail="5" limitTurnSpeed="5.50" xsi:noNamespaceSchemaLocation="http://sumo.dlr.de/xsd/net_file.xsd">
	<location netOffset="-336586.08,3754670.31" convBoundary="0.00,12.34,1539.34,2196.77" origBoundary="151.232525,-33.920080,151.266296,-33.899237" projParameter="+proj=utm +zone=56 +ellps=WGS84 +datum=WGS84 +units=m +no_defs" />
	<subgraphs>
		<subgraph id="sg0" from_junction="357" to_junction="315" edges="135,972,891,268,15,74,628,89,611,828,373,957,774,110,21,833,605,1006,107,743,112,292,415,389,976,616,615,741,482,82,136,932,76,935,84,488,38,346,742,714,480,87,20,975,958,938,578,829,712,970,710,512,959,382,553,430,554,388,262,375,627,376,592,210,279,989,341,339,504,11,886,377,98,1007,334,617,502,285,928,254,826,641,1003,531,890,230,550,548,894,922,289,551,768,990,549,69,483,379,834,968,933,513,709,1002,1004,985,378,936,830,252,546,92,931,386,12,16,583,769,86,286,585,543,884,381,590,608,62,937,345,552,284,779,253,42,75,283,762,500,17,893,929,338,479,745,111,588,594,266,311,885,439,984,766,237,744,380,544,18,99,371,269,892,19,267,967,93,503,511,55,390,934,233,487,56,1018,374,124,13,405,827,318,335,604,621,711,547,90,1005,763" />
		<subgraph id="sg1" from_junction="241" to_junction="316" edges="948,135,972,15,268,391,891,628,89,611,485,828,810,373,428,957,774,110,874,833,21,1006,591,107,415,389,947,739,482,136,46,932,76,38,480,821,87,20,578,958,938,829,712,512,710,553,554,388,375,47,627,376,592,399,385,708,339,886,377,98,1007,796,502,285,928,254,805,826,1003,531,890,230,550,548,894,922,809,875,551,768,549,547,483,379,498,290,834,968,933,513,709,1004,1002,378,830,936,252,546,92,501,931,386,287,384,197,16,811,595,383,86,286,887,941,543,884,381,590,822,62,387,400,812,896,552,253,284,779,42,283,17,893,479,235,486,588,594,266,713,496,885,439,766,380,544,18,99,371,892,269,229,478,19,267,288,967,93,511,390,233,487,930,1018,374,13,405,827,940,793,318,472,335,711,939,503,90,1005" />
		<subgraph id="sg2" from_junction="292" to_junction="357" edges="916,477,372,430,920,921,410,407,212,5,520,22,1009,504,924,915,751,213,925,505,471,927,926,211,983,229,250,406,750,362,740,919,950,741,369,481,923,6,8,742,29,964,7,394,794,411,763" />
	</subgraphs>
	<type id="highway.bridleway" priority="1" numLanes="1" speed="2.78" allow="pedestrian" oneway="1" width="2.00" />
	<type id="highway.bus_guideway" priority="1" numLanes="1" speed="27.78" allow="bus" oneway="1" />
	<type id="highway.cycleway" priority="1" numLanes="1" speed="8.33" allow="bicycle" oneway="0" width="1.00" />
	<type id="highway.footway" priority="1" numLanes="1" speed="2.78" allow="pedestrian" oneway="1" width="2.00" />
	<type id="highway.ford" priority="1" numLanes="1" speed="2.78" allow="army" oneway="0" />
	<type id="highway.living_street" priority="2" numLanes="1" speed="2.78" disallow="tram rail_urban rail rail_electric rail_fast ship" oneway="0" />
	<type id="highway.motorway" priority="14" numLanes="2" speed="39.44" allow="private emergency authority army vip passenger hov taxi bus coach delivery truck trailer motorcycle evehicle custom1 custom2" oneway="1" />
	<type id="highway.motorway_link" priority="9" numLanes="1" speed="22.22" allow="private emergency authority army vip passenger hov taxi bus coach delivery truck trailer motorcycle evehicle custom1 custom2" oneway="1" />
	<type id="highway.path" priority="1" numLanes="1" speed="2.78" allow="pedestrian bicycle" oneway="0" width="2.00" />
	<type id="highway.pedestrian" priority="1" numLanes="1" speed="2.78" allow="pedestrian" oneway="1" width="2.00" />
	<type id="highway.primary" priority="12" numLanes="2" speed="27.78" disallow="tram rail_urban rail rail_electric rail_fast ship" oneway="0" />
	<type id="highway.primary_link" priority="7" numLanes="1" speed="22.22" disallow="tram rail_urban rail rail_electric rail_fast ship" oneway="0" />
	<type id="highway.raceway" priority="15" numLanes="2" speed="83.33" allow="vip" oneway="0" />
	<type id="highway.residential" priority="3" numLanes="1" speed="13.89" disallow="tram rail_urban rail rail_electric rail_fast ship" oneway="0" />
	<type id="highway.secondary" priority="11" numLanes="1" speed="27.78" disallow="tram rail_urban rail rail_electric rail_fast ship" oneway="0" />
	<type id="highway.secondary_link" priority="6" numLanes="1" speed="22.22" disallow="tram rail_urban rail rail_electric rail_fast ship" oneway="0" />
	<type id="highway.service" priority="1" numLanes="1" speed="5.56" allow="pedestrian delivery bicycle" oneway="0" />
	<type id="highway.stairs" priority="1" numLanes="1" speed="1.39" allow="pedestrian" oneway="1" width="2.00" />
	<type id="highway.step" priority="1" numLanes="1" speed="1.39" allow="pedestrian" oneway="1" width="2.00" />
	<type id="highway.steps" priority="1" numLanes="1" speed="1.39" allow="pedestrian" oneway="1" width="2.00" />
	<type id="highway.tertiary" priority="10" numLanes="1" speed="22.22" disallow="tram rail_urban rail rail_electric rail_fast ship" oneway="0" />
	<type id="highway.tertiary_link" priority="5" numLanes="1" speed="22.22" disallow="tram rail_urban rail rail_electric rail_fast ship" oneway="0" />
	<type id="highway.track" priority="1" numLanes="1" speed="5.56" allow="pedestrian motorcycle moped bicycle" oneway="0" />
	<type id="highway.trunk" priority="13" numLanes="2" speed="27.78" disallow="pedestrian bicycle tram rail_urban rail rail_electric rail_fast ship" oneway="0" />
	<type id="highway.trunk_link" priority="8" numLanes="1" speed="22.22" disallow="pedestrian bicycle tram rail_urban rail rail_electric rail_fast ship" oneway="0" />
	<type id="highway.unclassified" priority="4" numLanes="1" speed="13.89" disallow="tram rail_urban rail rail_electric rail_fast ship" oneway="0" />
	<type id="highway.unsurfaced" priority="1" numLanes="1" speed="8.33" disallow="tram rail_urban rail rail_electric rail_fast ship" oneway="0" />
	<type id="railway.highspeed" priority="21" numLanes="1" speed="69.44" allow="rail_fast" oneway="1" />
	<type id="railway.light_rail" priority="19" numLanes="1" speed="27.78" allow="rail_urban" oneway="1" />
	<type id="railway.preserved" priority="16" numLanes="1" speed="27.78" allow="rail" oneway="1" />
	<type id="railway.rail" priority="20" numLanes="1" speed="44.44" allow="rail" oneway="1" />
	<type id="railway.subway" priority="18" numLanes="1" speed="27.78" allow="rail_urban" oneway="1" />
	<type id="railway.tram" priority="17" numLanes="1" speed="13.89" allow="tram" oneway="1" />
	<edge id=":107_0" function="internal">
		<lane id=":107_0_0" index="0" disallow="tram rail_urban rail rail_electric rail_fast ship" speed="13.89" length="0.30" shape="947.76,196.75 948.05,196.69" />
	</edge>
	<edge id=":116_0" function="internal">
		<lane id=":116_0_0" index="0" disallow="tram rail_urban rail rail_electric rail_fast ship" speed="13.89" length="0.31" shape="444.09,626.21 444.02,625.90" />
	</edge>
	<edge id=":116_1" function="internal">
		<lane id=":116_1_0" index="0" disallow="tram rail_urban rail rail_electric rail_fast ship" speed="3.65" length="2.34" shape="444.09,626.21 444.61,624.87 445.31,624.31" />
	</edge>
	<edge id=":116_4" function="internal">
		<lane id=":116_4_0" index="0" disallow="tram rail_urban rail rail_electric rail_fast ship" speed="3.65" length="2.34" shape="445.31,624.31 446.18,624.53 447.21,625.53" />
	</edge>
	<edge id=":116_2" function="internal">
		<lane id=":116_2_0" index="0" disallow="tram rail_urban rail rail_electric rail_fast ship" speed="13.89" length="0.26" shape="447.16,625.27 447.21,625.53" />
	</edge>
	<edge id=":116_3" function="internal">
		<lane id=":116_3_0" index="0" disallow="tram rail_urban rail rail_electric rail_fast ship" speed="3.65" length="2.34" shape="447.16,625.27 446.61,626.61 445.91,627.16" />
	</edge>
	<edge id=":116_5" function="internal">
		<lane id=":116_5_0" index="0" disallow="tram rail_urban rail rail_electric rail_fast ship" speed="3.65" length="2.34" shape="445.91,627.16 445.04,626.92 444.02,625.90" />
	</edge>
	<edge id=":140_0" function="internal">
		<lane id=":140_0_0" index="0" disallow="tram rail_urban rail rail_electric rail_fast ship" speed="13.89" length="0.10" shape="1525.29,1636.53 1525.29,1636.53" />
	</edge>
	<edge id=":151_0" function="internal">
		<lane id=":151_0_0" index="0" disallow="tram rail_urban rail rail_electric rail_fast ship" speed="3.90" length="2.58" shape="279.50,1241.80 279.50,1241.09 279.72,1240.55 280.18,1240.18 280.85,1239.99" />
	</edge>
	<edge id=":152_0" function="internal">
		<lane id=":152_0_0" index="0" disallow="tram rail_urban rail rail_electric rail_fast ship" speed="13.89" length="9.40" shape="356.47,1063.21 355.12,1053.91" />
	</edge>
	<edge id=":152_1" function="internal">
		<lane id=":152_1_0" index="0" disallow="tram rail_urban rail rail_electric rail_fast ship" speed="6.08" length="7.76" shape="356.47,1063.21 356.27,1060.45 356.56,1058.42 357.35,1057.12 358.64,1056.53" />
	</edge>
	<edge id=":152_2" function="internal">
		<lane id=":152_2_0" index="0" disallow="tram rail_urban rail rail_electric rail_fast ship" speed="6.09" length="0.95" shape="359.10,1059.70 358.15,1059.57" />
	</edge>
	<edge id=":152_3" function="internal">
		<lane id=":152_3_0" index="0" disallow="tram rail_urban rail rail_electric rail_fast ship" speed="3.65" length="0.86" shape="359.10,1059.70 358.32,1059.33" />
	</edge>
	<edge id=":152_4" function="internal">
		<lane id=":152_4_0" index="0" disallow="tram rail_urban rail rail_electric rail_fast ship" speed="6.09" length="6.81" shape="358.15,1059.57 357.70,1059.50 356.57,1058.47 355.71,1056.61 355.12,1053.91" />
	</edge>
	<edge id=":152_5" function="internal">
		<lane id=":152_5_0" index="0" disallow="tram rail_urban rail rail_electric rail_fast ship" speed="3.65" length="3.81" shape="358.32,1059.33 357.80,1059.08 357.29,1058.34 357.57,1057.49 358.64,1056.53" />
	</edge>
	<edge id=":153_0" function="internal">
		<lane id=":153_0_0" index="0" disallow="tram rail_urban rail rail_electric rail_fast ship" speed="13.89" length="9.93" shape="515.82,1667.59 507.62,1661.99" />
	</edge>
	<edge id=":153_1" function="internal">
		<lane id=":153_1_0" index="0" disallow="tram rail_urban rail rail_electric rail_fast ship" speed="6.73" length="3.63" shape="515.17,1660.88 513.32,1662.35 512.13,1662.78" />
	</edge>
	<edge id=":153_2" function="internal">
		<lane id=":153_2_0" index="0" disallow="tram rail_urban rail rail_electric rail_fast ship" speed="6.73" length="4.77" shape="512.13,1662.78 511.44,1663.03 509.54,1662.91 507.62,1661.99" />
	</edge>
	<edge id=":154_0" function="internal">
		<lane id=":154_0_0" index="0" disallow="tram rail_urban rail rail_electric rail_fast ship" speed="27.78" length="0.95" shape="535.65,1825.31 535.49,1825.09 535.40,1824.92 535.35,1824.73 535.33,1824.45" />
	</edge>
	<edge id=":155_0" function="internal">
		<lane id=":155_0_0" index="0" disallow="tram rail_urban rail rail_electric rail_fast ship" speed="15.28" length="0.30" shape="581.02,1198.51 580.71,1198.55" />
	</edge>
	<edge id=":155_1" function="internal">
		<lane id=":155_1_0" index="0" disallow="tram rail_urban rail rail_electric rail_fast ship" speed="15.28" length="0.30" shape="580.31,1195.37 580.60,1195.33" />
	</edge>
	<edge id=":156_0" function="internal">
		<lane id=":156_0_0" index="0" disallow="tram rail_urban rail rail_electric rail_fast ship" speed="6.51" length="9.03" shape="794.98,1706.15 794.27,1703.78 792.98,1702.20 791.09,1701.42 788.62,1701.44" />
	</edge>
	<edge id=":156_1" function="internal">
		<lane id=":156_1_0" index="0" disallow="tram rail_urban rail rail_electric rail_fast ship" speed="13.89" length="11.20" shape="794.98,1706.15 793.33,1695.07" />
	</edge>
	<edge id=":156_2" function="internal">
		<lane id=":156_2_0" index="0" disallow="tram rail_urban rail rail_electric rail_fast ship" speed="3.65" length="1.44" shape="794.98,1706.15 795.60,1704.84" />
	</edge>
	<edge id=":156_6" function="internal">
		<lane id=":156_6_0" index="0" disallow="tram rail_urban rail rail_electric rail_fast ship" speed="3.65" length="3.23" shape="795.60,1704.84 796.33,1704.33 797.18,1704.60 798.15,1705.67" />
	</edge>
	<edge id=":156_3" function="internal">
		<lane id=":156_3_0" index="0" disallow="tram rail_urban rail rail_electric rail_fast ship" speed="13.89" length="11.20" shape="796.49,1694.60 798.15,1705.67" />
	</edge>
	<edge id=":156_4" function="internal">
		<lane id=":156_4_0" index="0" disallow="tram rail_urban rail rail_electric rail_fast ship" speed="7.33" length="2.51" shape="796.49,1694.60 796.31,1697.10" />
	</edge>
	<edge id=":156_5" function="internal">
		<lane id=":156_5_0" index="0" disallow="tram rail_urban rail rail_electric rail_fast ship" speed="3.65" length="1.44" shape="796.49,1694.60 795.88,1695.90" />
	</edge>
	<edge id=":156_7" function="internal">
		<lane id=":156_7_0" index="0" disallow="tram rail_urban rail rail_electric rail_fast ship" speed="7.33" length="9.21" shape="796.31,1697.10 794.94,1699.08 792.37,1700.52 788.62,1701.44" />
	</edge>
	<edge id=":156_8" function="internal">
		<lane id=":156_8_0" index="0" disallow="tram rail_urban rail rail_electric rail_fast ship" speed="3.65" length="3.23" shape="795.88,1695.90 795.15,1696.42 794.29,1696.14 793.33,1695.07" />
	</edge>
	<edge id=":157_0" function="internal">
		<lane id=":157_0_0" index="0" disallow="tram rail_urban rail rail_electric rail_fast ship" speed="13.89" length="14.43" shape="394.64,1332.72 392.82,1318.41" />
	</edge>
	<edge id=":157_1" function="internal">
		<lane id=":157_1_0" index="0" disallow="tram rail_urban rail rail_electric rail_fast ship" speed="8.04" length="10.33" shape="394.64,1332.72 394.70,1328.84 395.99,1325.89 398.51,1323.88" />
	</edge>
	<edge id=":157_6" function="internal">
		<lane id=":157_6_0" index="0" disallow="tram rail_urban rail rail_electric rail_fast ship" speed="8.04" length="3.90" shape="398.51,1323.88 402.27,1322.82" />
	</edge>
	<edge id=":157_2" function="internal">
		<lane id=":157_2_0" index="0" disallow="tram rail_urban rail rail_electric rail_fast ship" speed="7.99" length="14.23" shape="402.70,1325.99 398.80,1325.96 395.85,1324.69 393.86,1322.17 392.82,1318.41" />
	</edge>
	<edge id=":157_3" function="internal">
		<lane id=":157_3_0" index="0" disallow="tram rail_urban rail rail_electric rail_fast ship" speed="3.65" length="4.67" shape="402.70,1325.99 401.40,1325.36 400.90,1324.62 401.19,1323.77 402.27,1322.82" />
	</edge>
	<edge id=":157_4" function="internal">
		<lane id=":157_4_0" index="0" disallow="tram rail_urban rail rail_electric rail_fast ship" speed="6.49" length="9.03" shape="396.00,1318.01 396.65,1320.40 397.92,1322.00 399.79,1322.80 402.27,1322.82" />
	</edge>
	<edge id=":157_5" function="internal">
		<lane id=":157_5_0" index="0" disallow="tram rail_urban rail rail_electric rail_fast ship" speed="3.65" length="1.44" shape="396.00,1318.01 395.35,1319.30" />
	</edge>
	<edge id=":157_7" function="internal">
		<lane id=":157_7_0" index="0" disallow="tram rail_urban rail rail_electric rail_fast ship" speed="3.65" length="3.23" shape="395.35,1319.30 394.61,1319.80 393.77,1319.50 392.82,1318.41" />
	</edge>
	<edge id=":158_0" function="internal">
		<lane id=":158_0_0" index="0" disallow="tram rail_urban rail rail_electric rail_fast ship" speed="13.89" length="0.10" shape="200.15,1454.86 200.15,1454.86" />
	</edge>
	<edge id=":160_0" function="internal">
		<lane id=":160_0_0" index="0" disallow="tram rail_urban rail rail_electric rail_fast ship" speed="13.89" length="10.91" shape="849.24,1160.56 838.43,1162.09" />
	</edge>
	<edge id=":160_1" function="internal">
		<lane id=":160_1_0" index="0" disallow="tram rail_urban rail rail_electric rail_fast ship" speed="3.65" length="1.44" shape="849.24,1160.56 847.94,1159.93" />
	</edge>
	<edge id=":160_6" function="internal">
		<lane id=":160_6_0" index="0" disallow="tram rail_urban rail rail_electric rail_fast ship" speed="3.65" length="3.23" shape="847.94,1159.93 847.44,1159.19 847.73,1158.34 848.81,1157.39" />
	</edge>
	<edge id=":160_2" function="internal">
		<lane id=":160_2_0" index="0" disallow="tram rail_urban rail rail_electric rail_fast ship" speed="6.53" length="8.93" shape="842.52,1152.65 843.24,1155.00 844.53,1156.57 846.39,1157.37 848.81,1157.39" />
	</edge>
	<edge id=":160_3" function="internal">
		<lane id=":160_3_0" index="0" disallow="tram rail_urban rail rail_electric rail_fast ship" speed="7.27" length="11.58" shape="842.52,1152.65 842.78,1156.46 842.19,1159.31 840.74,1161.18 838.43,1162.09" />
	</edge>
	<edge id=":160_4" function="internal">
		<lane id=":160_4_0" index="0" disallow="tram rail_urban rail rail_electric rail_fast ship" speed="13.89" length="10.97" shape="837.94,1158.93 848.81,1157.39" />
	</edge>
	<edge id=":160_5" function="internal">
		<lane id=":160_5_0" index="0" disallow="tram rail_urban rail rail_electric rail_fast ship" speed="3.65" length="1.44" shape="837.94,1158.93 839.25,1159.54" />
	</edge>
	<edge id=":160_7" function="internal">
		<lane id=":160_7_0" index="0" disallow="tram rail_urban rail rail_electric rail_fast ship" speed="3.65" length="3.23" shape="839.25,1159.54 839.77,1160.27 839.50,1161.12 838.43,1162.09" />
	</edge>
	<edge id=":161_0" function="internal">
		<lane id=":161_0_0" index="0" disallow="tram rail_urban rail rail_electric rail_fast ship" speed="6.44" length="9.03" shape="734.68,1237.81 732.28,1238.47 730.70,1239.74 729.93,1241.62 729.97,1244.11" />
	</edge>
	<edge id=":161_1" function="internal">
		<lane id=":161_1_0" index="0" disallow="tram rail_urban rail rail_electric rail_fast ship" speed="8.08" length="14.25" shape="734.68,1237.81 730.75,1237.77 727.76,1236.50 725.71,1234.02 724.60,1230.33" />
	</edge>
	<edge id=":161_2" function="internal">
		<lane id=":161_2_0" index="0" disallow="tram rail_urban rail rail_electric rail_fast ship" speed="3.65" length="4.67" shape="734.68,1237.81 733.39,1237.17 732.89,1236.43 733.19,1235.58 734.28,1234.64" />
	</edge>
	<edge id=":161_3" function="internal">
		<lane id=":161_3_0" index="0" disallow="tram rail_urban rail rail_electric rail_fast ship" speed="6.60" length="9.17" shape="727.77,1229.86 728.48,1232.22 729.80,1233.81 731.73,1234.61 734.28,1234.64" />
	</edge>
	<edge id=":161_4" function="internal">
		<lane id=":161_4_0" index="0" disallow="tram rail_urban rail rail_electric rail_fast ship" speed="13.89" length="14.42" shape="727.77,1229.86 729.97,1244.11" />
	</edge>
	<edge id=":161_5" function="internal">
		<lane id=":161_5_0" index="0" disallow="tram rail_urban rail rail_electric rail_fast ship" speed="3.65" length="4.67" shape="727.77,1229.86 727.15,1231.16 726.42,1231.67 725.57,1231.40 724.60,1230.33" />
	</edge>
	<edge id=":162_0" function="internal">
		<lane id=":162_0_0" index="0" disallow="tram rail_urban rail rail_electric rail_fast ship" speed="6.46" length="9.05" shape="677.14,1723.11 676.44,1720.70 675.16,1719.11 673.28,1718.34 670.81,1718.39" />
	</edge>
	<edge id=":162_1" function="internal">
		<lane id=":162_1_0" index="0" disallow="tram rail_urban rail rail_electric rail_fast ship" speed="3.65" length="1.44" shape="677.14,1723.11 677.76,1721.81" />
	</edge>
	<edge id=":162_6" function="internal">
		<lane id=":162_6_0" index="0" disallow="tram rail_urban rail rail_electric rail_fast ship" speed="3.65" length="3.23" shape="677.76,1721.81 678.50,1721.30 679.35,1721.59 680.30,1722.66" />
	</edge>
	<edge id=":162_2" function="internal">
		<lane id=":162_2_0" index="0" disallow="tram rail_urban rail rail_electric rail_fast ship" speed="6.50" length="9.02" shape="685.10,1716.37 682.71,1717.05 681.12,1718.33 680.31,1720.20 680.30,1722.66" />
	</edge>
	<edge id=":162_3" function="internal">
		<lane id=":162_3_0" index="0" disallow="tram rail_urban rail rail_electric rail_fast ship" speed="13.89" length="14.43" shape="685.10,1716.37 670.81,1718.39" />
	</edge>
	<edge id=":162_4" function="internal">
		<lane id=":162_4_0" index="0" disallow="tram rail_urban rail rail_electric rail_fast ship" speed="22.22" length="11.25" shape="678.72,1711.53 680.30,1722.66" />
	</edge>
	<edge id=":162_5" function="internal">
		<lane id=":162_5_0" index="0" disallow="tram rail_urban rail rail_electric rail_fast ship" speed="7.37" length="7.47" shape="678.72,1711.53 678.52,1713.99 677.14,1715.95 674.88,1717.24" />
	</edge>
	<edge id=":162_7" function="internal">
		<lane id=":162_7_0" index="0" disallow="tram rail_urban rail rail_electric rail_fast ship" speed="7.37" length="4.25" shape="674.88,1717.24 674.57,1717.42 670.81,1718.39" />
	</edge>
	<edge id=":163_0" function="internal">
		<lane id=":163_0_0" index="0" disallow="tram rail_urban rail rail_electric rail_fast ship" speed="6.54" length="9.07" shape="580.55,1307.43 579.86,1305.06 578.56,1303.47 576.67,1302.67 574.18,1302.66" />
	</edge>
	<edge id=":163_1" function="internal">
		<lane id=":163_1_0" index="0" disallow="tram rail_urban rail rail_electric rail_fast ship" speed="13.89" length="14.40" shape="580.55,1307.43 578.51,1293.18" />
	</edge>
	<edge id=":163_2" function="internal">
		<lane id=":163_2_0" index="0" disallow="tram rail_urban rail rail_electric rail_fast ship" speed="3.65" length="1.44" shape="580.55,1307.43 581.18,1306.13" />
	</edge>
	<edge id=":163_9" function="internal">
		<lane id=":163_9_0" index="0" disallow="tram rail_urban rail rail_electric rail_fast ship" speed="3.65" length="3.23" shape="581.18,1306.13 581.91,1305.62 582.76,1305.90 583.72,1306.98" />
	</edge>
	<edge id=":163_3" function="internal">
		<lane id=":163_3_0" index="0" disallow="tram rail_urban rail rail_electric rail_fast ship" speed="13.89" length="14.40" shape="581.68,1292.72 583.72,1306.98" />
	</edge>
	<edge id=":163_4" function="internal">
		<lane id=":163_4_0" index="0" disallow="tram rail_urban rail rail_electric rail_fast ship" speed="7.99" length="4.07" shape="581.68,1292.72 581.68,1296.62 581.61,1296.78" />
	</edge>
	<edge id=":163_5" function="internal">
		<lane id=":163_5_0" index="0" disallow="tram rail_urban rail rail_electric rail_fast ship" speed="3.65" length="1.44" shape="581.68,1292.72 581.06,1294.02" />
	</edge>
	<edge id=":163_10" function="internal">
		<lane id=":163_10_0" index="0" disallow="tram rail_urban rail rail_electric rail_fast ship" speed="7.99" length="10.15" shape="581.61,1296.78 580.43,1299.58 577.93,1301.59 574.18,1302.66" />
	</edge>
	<edge id=":163_11" function="internal">
		<lane id=":163_11_0" index="0" disallow="tram rail_urban rail rail_electric rail_fast ship" speed="3.65" length="3.23" shape="581.06,1294.02 580.32,1294.53 579.47,1294.25 578.51,1293.18" />
	</edge>
	<edge id=":163_6" function="internal">
		<lane id=":163_6_0" index="0" disallow="tram rail_urban rail rail_electric rail_fast ship" speed="6.49" length="9.03" shape="573.75,1299.49 576.13,1298.81 577.72,1297.53 578.51,1295.65 578.51,1293.18" />
	</edge>
	<edge id=":163_7" function="internal">
		<lane id=":163_7_0" index="0" disallow="tram rail_urban rail rail_electric rail_fast ship" speed="8.02" length="14.20" shape="573.75,1299.49 577.65,1299.51 580.61,1300.77 582.63,1303.26 583.72,1306.98" />
	</edge>
	<edge id=":163_8" function="internal">
		<lane id=":163_8_0" index="0" disallow="tram rail_urban rail rail_electric rail_fast ship" speed="3.65" length="4.67" shape="573.75,1299.49 575.04,1300.12 575.55,1300.86 575.26,1301.70 574.18,1302.66" />
	</edge>
	<edge id=":164_0" function="internal">
		<lane id=":164_0_0" index="0" disallow="tram rail_urban rail rail_electric rail_fast ship" speed="6.55" length="9.07" shape="786.07,1236.92 785.37,1234.53 784.09,1232.93 782.21,1232.10 779.74,1232.06" />
	</edge>
	<edge id=":164_1" function="internal">
		<lane id=":164_1_0" index="0" disallow="tram rail_urban rail rail_electric rail_fast ship" speed="8.00" length="14.19" shape="786.07,1236.92 786.07,1233.03 787.32,1230.08 789.81,1228.06 793.55,1226.98" />
	</edge>
	<edge id=":164_2" function="internal">
		<lane id=":164_2_0" index="0" disallow="tram rail_urban rail rail_electric rail_fast ship" speed="3.65" length="4.67" shape="786.07,1236.92 786.69,1235.62 787.43,1235.12 788.27,1235.40 789.23,1236.48" />
	</edge>
	<edge id=":164_3" function="internal">
		<lane id=":164_3_0" index="0" disallow="tram rail_urban rail rail_electric rail_fast ship" speed="6.51" length="9.03" shape="793.99,1230.15 791.62,1230.84 790.03,1232.12 789.24,1234.00 789.23,1236.48" />
	</edge>
	<edge id=":164_4" function="internal">
		<lane id=":164_4_0" index="0" disallow="tram rail_urban rail rail_electric rail_fast ship" speed="13.89" length="14.38" shape="793.99,1230.15 779.74,1232.06" />
	</edge>
	<edge id=":164_5" function="internal">
		<lane id=":164_5_0" index="0" disallow="tram rail_urban rail rail_electric rail_fast ship" speed="3.65" length="1.44" shape="793.99,1230.15 792.69,1229.52" />
	</edge>
	<edge id=":164_9" function="internal">
		<lane id=":164_9_0" index="0" disallow="tram rail_urban rail rail_electric rail_fast ship" speed="3.65" length="3.23" shape="792.69,1229.52 792.19,1228.79 792.47,1227.94 793.55,1226.98" />
	</edge>
	<edge id=":164_6" function="internal">
		<lane id=":164_6_0" index="0" disallow="tram rail_urban rail rail_electric rail_fast ship" speed="13.89" length="14.34" shape="779.34,1228.89 793.55,1226.98" />
	</edge>
	<edge id=":164_7" function="internal">
		<lane id=":164_7_0" index="0" disallow="tram rail_urban rail rail_electric rail_fast ship" speed="8.04" length="4.00" shape="779.34,1228.89 783.21,1228.95 783.33,1229.00" />
	</edge>
	<edge id=":164_8" function="internal">
		<lane id=":164_8_0" index="0" disallow="tram rail_urban rail rail_electric rail_fast ship" speed="3.65" length="1.44" shape="779.34,1228.89 780.63,1229.53" />
	</edge>
	<edge id=":164_10" function="internal">
		<lane id=":164_10_0" index="0" disallow="tram rail_urban rail rail_electric rail_fast ship" speed="8.04" length="10.18" shape="783.33,1229.00 786.14,1230.23 788.15,1232.74 789.23,1236.48" />
	</edge>
	<edge id=":164_11" function="internal">
		<lane id=":164_11_0" index="0" disallow="tram rail_urban rail rail_electric rail_fast ship" speed="3.65" length="3.23" shape="780.63,1229.53 781.13,1230.27 780.83,1231.12 779.74,1232.06" />
	</edge>
	<edge id=":165_0" function="internal">
		<lane id=":165_0_0" index="0" disallow="tram rail_urban rail rail_electric rail_fast ship" speed="6.53" length="9.03" shape="876.69,1162.52 876.00,1160.14 874.72,1158.55 872.84,1157.74 870.37,1157.72" />
	</edge>
	<edge id=":165_1" function="internal">
		<lane id=":165_1_0" index="0" disallow="tram rail_urban rail rail_electric rail_fast ship" speed="8.00" length="14.17" shape="876.69,1162.52 876.69,1158.64 877.93,1155.68 880.42,1153.66 884.14,1152.56" />
	</edge>
	<edge id=":165_2" function="internal">
		<lane id=":165_2_0" index="0" disallow="tram rail_urban rail rail_electric rail_fast ship" speed="3.65" length="4.67" shape="876.69,1162.52 877.31,1161.22 878.05,1160.71 878.90,1160.99 879.86,1162.07" />
	</edge>
	<edge id=":165_3" function="internal">
		<lane id=":165_3_0" index="0" disallow="tram rail_urban rail rail_electric rail_fast ship" speed="6.51" length="9.02" shape="884.60,1155.73 882.23,1156.43 880.65,1157.72 879.86,1159.60 879.86,1162.07" />
	</edge>
	<edge id=":165_4" function="internal">
		<lane id=":165_4_0" index="0" disallow="tram rail_urban rail rail_electric rail_fast ship" speed="13.89" length="14.36" shape="884.60,1155.73 870.37,1157.72" />
	</edge>
	<edge id=":165_5" function="internal">
		<lane id=":165_5_0" index="0" disallow="tram rail_urban rail rail_electric rail_fast ship" speed="3.65" length="1.44" shape="884.60,1155.73 883.30,1155.11" />
	</edge>
	<edge id=":165_9" function="internal">
		<lane id=":165_9_0" index="0" disallow="tram rail_urban rail rail_electric rail_fast ship" speed="3.65" length="3.23" shape="883.30,1155.11 882.79,1154.38 883.07,1153.53 884.14,1152.56" />
	</edge>
	<edge id=":165_6" function="internal">
		<lane id=":165_6_0" index="0" disallow="tram rail_urban rail rail_electric rail_fast ship" speed="13.89" length="14.33" shape="869.95,1154.55 884.14,1152.56" />
	</edge>
	<edge id=":165_7" function="internal">
		<lane id=":165_7_0" index="0" disallow="tram rail_urban rail rail_electric rail_fast ship" speed="8.02" length="4.02" shape="869.95,1154.55 873.82,1154.58 873.95,1154.64" />
	</edge>
	<edge id=":165_8" function="internal">
		<lane id=":165_8_0" index="0" disallow="tram rail_urban rail rail_electric rail_fast ship" speed="3.65" length="1.44" shape="869.95,1154.55 871.24,1155.18" />
	</edge>
	<edge id=":165_10" function="internal">
		<lane id=":165_10_0" index="0" disallow="tram rail_urban rail rail_electric rail_fast ship" speed="8.02" length="10.15" shape="873.95,1154.64 876.76,1155.84 878.77,1158.34 879.86,1162.07" />
	</edge>
	<edge id=":165_11" function="internal">
		<lane id=":165_11_0" index="0" disallow="tram rail_urban rail rail_electric rail_fast ship" speed="3.65" length="3.23" shape="871.24,1155.18 871.74,1155.92 871.46,1156.77 870.37,1157.72" />
	</edge>
	<edge id=":166_0" function="internal">
		<lane id=":166_0_0" index="0" disallow="tram rail_urban rail rail_electric rail_fast ship" speed="6.39" length="9.04" shape="639.88,1025.53 639.33,1023.10 638.13,1021.47 636.28,1020.64 633.78,1020.62" />
	</edge>
	<edge id=":166_1" function="internal">
		<lane id=":166_1_0" index="0" disallow="tram rail_urban rail rail_electric rail_fast ship" speed="13.89" length="14.63" shape="639.88,1025.53 638.45,1010.97" />
	</edge>
	<edge id=":166_2" function="internal">
		<lane id=":166_2_0" index="0" disallow="tram rail_urban rail rail_electric rail_fast ship" speed="8.30" length="3.96" shape="639.88,1025.53 640.11,1021.58" />
	</edge>
	<edge id=":166_3" function="internal">
		<lane id=":166_3_0" index="0" disallow="tram rail_urban rail rail_electric rail_fast ship" speed="3.65" length="1.44" shape="639.88,1025.53 640.58,1024.27" />
	</edge>
	<edge id=":166_12" function="internal">