<?xml version='1.0' encoding='utf-8'?>
<routes>
	<vType accel="3.0" decel="6.0" id="CarDefault" length="5.0" minGap="2.5" maxSpeed="50.0" sigma="0.5" />
	<route id="sr6924" edges="278 93 92 415 650 623 624 625 356 616 585 586 641 357 622 556 626 591 398 541 542 578 391 34 33 229 220 3 2 224 223 306 543 544 350 602 370 371 372 373 445" fromJunction="246" toJunction="139" />
	<route id="r11493" edges="278 93 92 415 334 279 248 170 217 583 584 596 597 598 572 595 622 556 626 591 398 541 542 578 391 34 33 229 220 3 2 224 223 306 543 544 350 602 370 371 372 373 445" fromJunction="246" toJunction="139" />
	<route id="r11494" edges="604 605 579 580 581 582 283 284 285 577 322 323 83 219 218 184 1 89 231 260 193 194 213 212 237 236 235 225 9 8 110 103 102 276 196 195 252 58 38" fromJunction="226" toJunction="68" />
	<route id="r11492" edges="52 183 1 89 231 260 193 194 213 212 237 236 235 225 9 8 110 103 102 276 196 195 252 58 38" fromJunction="243" toJunction="68" />
	<route id="sr6923" edges="52 183 199 198 197 36 243 311 312 24 111 10 110 103 102 276 196 195 252 58 38" fromJunction="243" toJunction="68" />
	<route id="sr6925" edges="604 605 579 580 306 543 544 350 602 76 75 72 71 74 73 59 68 192 191 190 189 188 69 70 272 347 287 632 365 366 603 353 354 239 447 448 23 58 38" fromJunction="226" toJunction="68" />
	<vehicle id="v2619" depart="0.0" route="sr6923" type="CarDefault" departLane="random" />
	<vehicle id="v3581" depart="0.0" route="sr6924" type="CarDefault" departLane="random" />
	<vehicle id="v4376" depart="0.0" route="sr6925" type="CarDefault" departLane="random" />
	<vehicle id="v2620" depart="3.75" route="sr6923" type="CarDefault" departLane="random" />
	<vehicle id="v4377" depart="4.76" route="sr6925" type="CarDefault" departLane="random" />
	<vehicle id="v2621" depart="7.49" route="sr6923" type="CarDefault" departLane="random" />
	<vehicle id="v4288" depart="9" route="sr6925" type="CarDefault" departLane="random" />
	<vehicle id="v4378" depart="9.51" route="sr6925" type="CarDefault" departLane="random" />
	<vehicle id="v3582" depart="10.26" route="sr6924" type="CarDefault" departLane="random" />
	<vehicle id="v2622" depart="11.24" route="sr6923" type="CarDefault" departLane="random" />
	<vehicle id="v4379" depart="14.27" route="sr6925" type="CarDefault" departLane="random" />
	<vehicle id="v2623" depart="14.98" route="sr6923" type="CarDefault" departLane="random" />
	<vehicle id="v2624" depart="18.73" route="sr6923" type="CarDefault" departLane="random" />
	<vehicle id="v2529" depart="19" route="sr6923" type="CarDefault" departLane="random" />
	<vehicle id="v4380" depart="19.02" route="sr6925" type="CarDefault" departLane="random" />
	<vehicle id="v3583" depart="20.51" route="sr6924" type="CarDefault" departLane="random" />
	<vehicle id="v2625" depart="22.48" route="sr6923" type="CarDefault" departLane="random" />
	<vehicle id="v4381" depart="23.78" route="sr6925" type="CarDefault" departLane="random" />
	<vehicle id="v2626" depart="26.22" route="sr6923" type="CarDefault" departLane="random" />
	<vehicle id="v4382" depart="28.53" route="sr6925" type="CarDefault" departLane="random" />
	<vehicle id="v2627" depart="29.97" route="sr6923" type="CarDefault" departLane="random" />
	<vehicle id="v3584" depart="30.77" route="r11493" type="CarDefault" departLane="random" />
	<vehicle id="v4383" depart="33.29" route="r11494" type="CarDefault" departLane="random" />
	<vehicle id="v2628" depart="33.71" route="r11492" type="CarDefault" departLane="random" />
	<vehicle id="v2629" depart="37.46" route="r11492" type="CarDefault" departLane="random" />
	<vehicle id="v4384" depart="38.04" route="r11494" type="CarDefault" departLane="random" />
	<vehicle id="v4289" depart="39" route="r11494" type="CarDefault" departLane="random" />
	<vehicle id="v3585" depart="41.03" route="r11493" type="CarDefault" departLane="random" />
	<vehicle id="v2630" depart="41.21" route="r11492" type="CarDefault" departLane="random" />
	<vehicle id="v4385" depart="42.8" route="r11494" type="CarDefault" departLane="random" />
	<vehicle id="v2631" depart="44.95" route="r11492" type="CarDefault" departLane="random" />
	<vehicle id="v4386" depart="47.56" route="r11494" type="CarDefault" departLane="random" />
	<vehicle id="v2632" depart="48.7" route="r11492" type="CarDefault" departLane="random" />
	<vehicle id="v3586" depart="51.28" route="r11493" type="CarDefault" departLane="random" />
	<vehicle id="v4387" depart="52.31" route="r11494" type="CarDefault" departLane="random" />
	<vehicle id="v2633" depart="52.45" route="r11492" type="CarDefault" departLane="random" />
	<vehicle id="v4290" depart="56" route="r11494" type="CarDefault" departLane="random" />
	<vehicle id="v2634" depart="56.19" route="r11492" type="CarDefault" departLane="random" />
	<vehicle id="v4388" depart="57.07" route="r11494" type="CarDefault" departLane="random" />
	<vehicle id="v2635" depart="59.94" route="r11492" type="CarDefault" departLane="random" />
	<vehicle id="v3587" depart="61.54" route="r11493" type="CarDefault" departLane="random" />
	<vehicle id="v4389" depart="61.82" route="sr6925" type="CarDefault" departLane="random" />
	<vehicle id="v2636" depart="63.68" route="r11492" type="CarDefault" departLane="random" />
	<vehicle id="v4291" depart="64" route="sr6925" type="CarDefault" departLane="random" />
	<vehicle id="v4390" depart="66.58" route="sr6925" type="CarDefault" departLane="random" />
	<vehicle id="v2637" depart="67.43" route="r11492" type="CarDefault" departLane="random" />
	<vehicle id="v2638" depart="71.18" route="r11492" type="CarDefault" departLane="random" />
	<vehicle id="v4391" depart="71.33" route="sr6925" type="CarDefault" departLane="random" />
	<vehicle id="v3588" depart="71.79" route="r11493" type="CarDefault" departLane="random" />
	<vehicle id="v2639" depart="74.92" route="r11492" type="CarDefault" departLane="random" />
	<vehicle id="v4392" depart="76.09" route="sr6925" type="CarDefault" departLane="random" />
	<vehicle id="v2640" depart="78.67" route="r11492" type="CarDefault" departLane="random" />
	<vehicle id="v4393" depart="80.85" route="sr6925" type="CarDefault" departLane="random" />
	<vehicle id="v3589" depart="82.05" route="r11493" type="CarDefault" departLane="random" />
	<vehicle id="v2641" depart="82.41" route="r11492" type="CarDefault" departLane="random" />
	<vehicle id="v4394" depart="85.6" route="sr6925" type="CarDefault" departLane="random" />
	<vehicle id="v2642" depart="86.16" route="r11492" type="CarDefault" departLane="random" />
	<vehicle id="v2643" depart="89.91" route="r11492" type="CarDefault" departLane="random" />
	<vehicle id="v4395" depart="90.36" route="sr6925" type="CarDefault" departLane="random" />
	<vehicle id="v3590" depart="92.31" route="r11493" type="CarDefault" departLane="random" />
	<vehicle id="v2644" depart="93.65" route="r11492" type="CarDefault" departLane="random" />
	<vehicle id="v4396" depart="95.11" route="sr6925" type="CarDefault" departLane="random" />
	<vehicle id="v2645" depart="97.4" route="r11492" type="CarDefault" departLane="random" />
	<vehicle id="v4397" depart="99.87" route="sr6925" type="CarDefault" departLane="random" />
	<vehicle id="v2646" depart="101.14" route="r11492" type="CarDefault" departLane="random" />
	<vehicle id="v3591" depart="102.56" route="r11493" type="CarDefault" departLane="random" />
	<vehicle id="v4398" depart="104.62" route="sr6925" type="CarDefault" departLane="random" />
	<vehicle id="v2647" depart="104.89" route="r11492" type="CarDefault" departLane="random" />
	<vehicle id="v2530" depart="107" route="r11492" type="CarDefault" departLane="random" />
	<vehicle id="v2648" depart="108.64" route="r11492" type="CarDefault" departLane="random" />
	<vehicle id="v4399" depart="109.38" route="sr6925" type="CarDefault" departLane="random" />
	<vehicle id="v2649" depart="112.38" route="r11492" type="CarDefault" departLane="random" />
	<vehicle id="v3592" depart="112.82" route="r11493" type="CarDefault" departLane="random" />
	<vehicle id="v4400" depart="114.13" route="sr6925" type="CarDefault" departLane="random" />
	<vehicle id="v2650" depart="116.13" route="r11492" type="CarDefault" departLane="random" />
	<vehicle id="v4401" depart="118.89" route="sr6925" type="CarDefault" departLane="random" />
	<vehicle id="v2651" depart="119.88" route="r11492" type="CarDefault" departLane="random" />
	<vehicle id="v3593" depart="123.08" route="r11493" type="CarDefault" departLane="random" />
	<vehicle id="v2652" depart="123.62" route="r11492" type="CarDefault" departLane="random" />
	<vehicle id="v4402" depart="123.65" route="sr6925" type="CarDefault" departLane="random" />
	<vehicle id="v4292" depart="127" route="sr6925" type="CarDefault" departLane="random" />
	<vehicle id="v2653" depart="127.37" route="r11492" type="CarDefault" departLane="random" />
	<vehicle id="v4403" depart="128.4" route="sr6925" type="CarDefault" departLane="random" />
	<vehicle id="v2654" depart="131.11" route="r11492" type="CarDefault" departLane="random" />
	<vehicle id="v4404" depart="133.16" route="sr6925" type="CarDefault" departLane="random" />
	<vehicle id="v3594" depart="133.33" route="r11493" type="CarDefault" departLane="random" />
	<vehicle id="v2655" depart="134.86" route="r11492" type="CarDefault" departLane="random" />
	<vehicle id="v4405" depart="137.91" route="sr6925" type="CarDefault" departLane="random" />
	<vehicle id="v2656" depart="138.61" route="r11492" type="CarDefault" departLane="random" />
	<vehicle id="v2657" depart="142.35" route="r11492" type="CarDefault" departLane="random" />
	<vehicle id="v4406" depart="142.67" route="sr6925" type="CarDefault" departLane="random" />
	<vehicle id="v3595" depart="143.59" route="r11493" type="CarDefault" departLane="random" />
	<vehicle id="v2658" depart="146.1" route="r11492" type="CarDefault" departLane="random" />
	<vehicle id="v4407" depart="147.42" route="sr6925" type="CarDefault" departLane="random" />
	<vehicle id="v2531" depart="149" route="r11492" type="CarDefault" departLane="random" />
	<vehicle id="v2659" depart="149.84" route="r11492" type="CarDefault" departLane="random" />
	<vehicle id="v4408" depart="152.18" route="sr6925" type="CarDefault" departLane="random" />
	<vehicle id="v2660" depart="153.59" route="r11492" type="CarDefault" departLane="random" />
	<vehicle id="v3596" depart="153.85" route="r11493" type="CarDefault" departLane="random" />
	<vehicle id="v4409" depart="156.94" route="sr6925" type="CarDefault" departLane="random" />
	<vehicle id="v2661" depart="157.34" route="r11492" type="CarDefault" departLane="random" />
	<vehicle id="v2662" depart="161.08" route="r11492" type="CarDefault" departLane="random" />
	<vehicle id="v4410" depart="161.69" route="sr6925" type="CarDefault" departLane="random" />
	<vehicle id="v3597" depart="164.1" route="r11493" type="CarDefault" departLane="random" />
	<vehicle id="v2663" depart="164.83" route="r11492" type="CarDefault" departLane="random" />
	<vehicle id="v4411" depart="166.45" route="sr6925" type="CarDefault" departLane="random" />
	<vehicle id="v4293" depart="168" route="sr6925" type="CarDefault" departLane="random" />
	<vehicle id="v2664" depart="168.57" route="r11492" type="CarDefault" departLane="random" />
	<vehicle id="v4412" depart="171.2" route="sr6925" type="CarDefault" departLane="random" />
	<vehicle id="v2665" depart="172.32" route="r11492" type="CarDefault" departLane="random" />
	<vehicle id="v3598" depart="174.36" route="r11493" type="CarDefault" departLane="random" />
	<vehicle id="v4413" depart="175.96" route="sr6925" type="CarDefault" departLane="random" />
	<vehicle id="v2532" depart="176" route="r11492" type="CarDefault" departLane="random" />
	<vehicle id="v2666" depart="176.07" route="r11492" type="CarDefault" departLane="random" />
	<vehicle id="v2667" depart="179.81" route="r11492" type="CarDefault" departLane="random" />
	<vehicle id="v4414" depart="180.71" route="r11494" type="CarDefault" departLane="random" />
	<vehicle id="v2668" depart="183.56" route="r11492" type="CarDefault" departLane="random" />
	<vehicle id="v3599" depart="184.62" route="r11493" type="CarDefault" departLane="random" />
	<vehicle id="v4415" depart="185.47" route="r11494" type="CarDefault" departLane="random" />
	<vehicle id="v2669" depart="187.3" route="r11492" type="CarDefault" departLane="random" />
	<vehicle id="v4294" depart="190" route="r11494" type="CarDefault" departLane="random" />
	<vehicle id="v4416" depart="190.22" route="r11494" type="CarDefault" departLane="random" />
	<vehicle id="v2670" depart="191.05" route="r11492" type="CarDefault" departLane="random" />
	<vehicle id="v2671" depart="194.8" route="r11492" type="CarDefault" departLane="random" />
	<vehicle id="v3600" depart="194.87" route="r11493" type="CarDefault" departLane="random" />
	<vehicle id="v4417" depart="194.98" route="r11494" type="CarDefault" departLane="random" />
	<vehicle id="v2672" depart="198.54" route="r11492" type="CarDefault" departLane="random" />
	<vehicle id="v4418" depart="199.74" route="r11494" type="CarDefault" departLane="random" />
	<vehicle id="v2673" depart="202.29" route="r11492" type="CarDefault" departLane="random" />
	<vehicle id="v2533" depart="204" route="r11492" type="CarDefault" departLane="random" />
	<vehicle id="v4419" depart="204.49" route="r11494" type="CarDefault" departLane="random" />
	<vehicle id="v3601" depart="205.13" route="r11493" type="CarDefault" departLane="random" />
	<vehicle id="v2674" depart="206.04" route="r11492" type="CarDefault" departLane="random" />
	<vehicle id="v4420" depart="209.25" route="r11494" type="CarDefault" departLane="random" />
	<vehicle id="v2675" depart="209.78" route="r11492" type="CarDefault" departLane="random" />
	<vehicle id="v2676" depart="213.53" route="r11492" type="CarDefault" departLane="random" />
	<vehicle id="v4421" depart="214.0" route="sr6925" type="CarDefault" departLane="random" />
	<vehicle id="v3602" depart="215.38" route="r11493" type="CarDefault" departLane="random" />
	<vehicle id="v2677" depart="217.27" route="r11492" type="CarDefault" departLane="random" />
	<vehicle id="v4422" depart="218.76" route="sr6925" type="CarDefault" departLane="random" />
	<vehicle id="v2678" depart="221.02" route="r11492" type="CarDefault" departLane="random" />
	<vehicle id="v4423" depart="223.51" route="sr6925" type="CarDefault" departLane="random" />
	<vehicle id="v2679" depart="224.77" route="r11492" type="CarDefault" departLane="random" />
	<vehicle id="v3603" depart="225.64" route="r11493" type="CarDefault" departLane="random" />
	<vehicle id="v4424" depart="228.27" route="sr6925" type="CarDefault" departLane="random" />
	<vehicle id="v2680" depart="228.51" route="r11492" type="CarDefault" departLane="random" />
	<vehicle id="v2681" depart="232.26" route="r11492" type="CarDefault" departLane="random" />
	<vehicle id="v4425" depart="233.03" route="sr6925" type="CarDefault" departLane="random" />
	<vehicle id="v3604" depart="235.9" route="r11493" type="CarDefault" departLane="random" />
	<vehicle id="v2682" depart="236.0" route="r11492" type="CarDefault" departLane="random" />
	<vehicle id="v4426" depart="237.78" route="sr6925" type="CarDefault" departLane="random" />
	<vehicle id="v2683" depart="239.75" route="r11492" type="CarDefault" departLane="random" />
	<vehicle id="v4427" depart="242.54" route="r11494" type="CarDefault" departLane="random" />
	<vehicle id="v2684" depart="243.5" route="r11492" type="CarDefault" departLane="random" />
	<vehicle id="v3605" depart="246.15" route="r11493" type="CarDefault" departLane="random" />
	<vehicle id="v2685" depart="247.24" route="r11492" type="CarDefault" departLane="random" />
	<vehicle id="v4428" depart="247.29" route="r11494" type="CarDefault" departLane="random" />
	<vehicle id="v2686" depart="250.99" route="r11492" type="CarDefault" departLane="random" />
	<vehicle id="v4295" depart="252" route="r11494" type="CarDefault" departLane="random" />
	<vehicle id="v4429" depart="252.05" route="r11494" type="CarDefault" departLane="random" />
	<vehicle id="v2534" depart="254" route="r11492" type="CarDefault" departLane="random" />
	<vehicle id="v2687" depart="254.73" route="r11492" type="CarDefault" departLane="random" />
	<vehicle id="v3606" depart="256.41" route="r11493" type="CarDefault" departLane="random" />
	<vehicle id="v4430" depart="256.8" route="r11494" type="CarDefault" departLane="random" />
	<vehicle id="v2688" depart="258.48" route="r11492" type="CarDefault" departLane="random" />
	<vehicle id="v4431" depart="261.56" route="r11494" type="CarDefault" departLane="random" />
	<vehicle id="v2689" depart="262.23" route="r11492" type="CarDefault" departLane="random" />
	<vehicle id="v2690" depart="265.97" route="r11492" type="CarDefault" departLane="random" />
	<vehicle id="v4296" depart="266" route="r11494" type="CarDefault" departLane="random" />
	<vehicle id="v4432" depart="266.31" route="r11494" type="CarDefault" departLane="random" />
	<vehicle id="v3607" depart="266.67" route="r11493" type="CarDefault" departLane="random" />
	<vehicle id="v2691" depart="269.72" route="r11492" type="CarDefault" departLane="random" />
	<vehicle id="v4433" depart="271.07" route="sr6925" type="CarDefault" departLane="random" />
	<vehicle id="v2692" depart="273.47" route="sr6923" type="CarDefault" departLane="random" />
	<vehicle id="v4434" depart="275.83" route="sr6925" type="CarDefault" departLane="random" />
	<vehicle id="v3608" depart="276.92" route="sr6924" type="CarDefault" departLane="random" />
	<vehicle id="v2693" depart="277.21" route="sr6923" type="CarDefault" departLane="random" />
	<vehicle id="v2535" depart="279" route="sr6923" type="CarDefault" departLane="random" />
	<vehicle id="v4435" depart="280.58" route="sr6925" type="CarDefault" departLane="random" />
	<vehicle id="v2694" depart="280.96" route="sr6923" type="CarDefault" departLane="random" />
	<vehicle id="v2695" depart="284.7" route="sr6923" type="CarDefault" departLane="random" />
	<vehicle id="v4436" depart="285.34" route="sr6925" type="CarDefault" departLane="random" />
	<vehicle id="v3609" depart="287.18" route="sr6924" type="CarDefault" departLane="random" />
	<vehicle id="v2696" depart="288.45" route="sr6923" type="CarDefault" departLane="random" />
	<vehicle id="v4437" depart="290.09" route="sr6925" type="CarDefault" departLane="random" />
	<vehicle id="v2697" depart="292.2" route="sr6923" type="CarDefault" departLane="random" />
	<vehicle id="v4297" depart="293" route="sr6925" type="CarDefault" departLane="random" />
	<vehicle id="v4438" depart="294.85" route="sr6925" type="CarDefault" departLane="random" />
	<vehicle id="v2698" depart="295.94" route="sr6923" type="CarDefault" departLane="random" />
	<vehicle id="v3610" depart="297.44" route="sr6924" type="CarDefault" departLane="random" />
	<vehicle id="v2536" depart="298" route="sr6923" type="CarDefault" departLane="random" />
	<vehicle id="v4439" depart="299.6" route="sr6925" type="CarDefault" departLane="random" />
	<vehicle id="v2699" depart="299.69" route="sr6923" type="CarDefault" departLane="random" />
	<vehicle id="v2700" depart="303.43" route="r11492" type="CarDefault" departLane="random" />
	<vehicle id="v4440" depart="304.36" route="sr6925" type="CarDefault" departLane="random" />
	<vehicle id="v2701" depart="307.18" route="r11492" type="CarDefault" departLane="random" />
	<vehicle id="v3611" depart="307.69" route="r11493" type="CarDefault" departLane="random" />
	<vehicle id="v4441" depart="309.11" route="sr6925" type="CarDefault" departLane="random" />
	<vehicle id="v2702" depart="310.93" route="r11492" type="CarDefault" departLane="random" />
	<vehicle id="v4442" depart="313.87" route="sr6925" type="CarDefault" departLane="random" />
	<vehicle id="v2703" depart="314.67" route="r11492" type="CarDefault" departLane="random" />
	<vehicle id="v3612" depart="317.95" route="r11493" type="CarDefault" departLane="random" />
	<vehicle id="v2704" depart="318.42" route="r11492" type="CarDefault" departLane="random" />
	<vehicle id="v4443" depart="318.63" route="sr6925" type="CarDefault" departLane="random" />
	<vehicle id="v2705" depart="322.16" route="r11492" type="CarDefault" departLane="random" />
	<vehicle id="v4444" depart="323.38" route="sr6925" type="CarDefault" departLane="random" />
	<vehicle id="v2706" depart="325.91" route="r11492" type="CarDefault" departLane="random" />
	<vehicle id="v2537" depart="327" route="r11492" type="CarDefault" departLane="random" />
	<vehicle id="v4445" depart="328.14" route="sr6925" type="CarDefault" departLane="random" />
	<vehicle id="v3613" depart="328.21" route="r11493" type="CarDefault" departLane="random" />
	<vehicle id="v2707" depart="329.66" route="r11492" type="CarDefault" departLane="random" />
	<vehicle id="v4446" depart="332.89" route="sr6925" type="CarDefault" departLane="random" />
	<vehicle id="v2708" depart="333.4" route="r11492" type="CarDefault" departLane="random" />
	<vehicle id="v2709" depart="337.15" route="r11492" type="CarDefault" departLane="random" />
	<vehicle id="v4447" depart="337.65" route="sr6925" type="CarDefault" departLane="random" />
	<vehicle id="v3614" depart="338.46" route="r11493" type="CarDefault" departLane="random" />
	<vehicle id="v2710" depart="340.89" route="r11492" type="CarDefault" departLane="random" />
	<vehicle id="v4448" depart="342.4" route="sr6925" type="CarDefault" departLane="random" />
	<vehicle id="v2711" depart="344.64" route="r11492" type="CarDefault" departLane="random" />
	<vehicle id="v4449" depart="347.16" route="sr6925" type="CarDefault" departLane="random" />
	<vehicle id="v2712" depart="348.39" route="r11492" type="CarDefault" departLane="random" />
	<vehicle id="v3615" depart="348.72" route="r11493" type="CarDefault" departLane="random" />
	<vehicle id="v4298" depart="350" route="sr6925" type="CarDefault" departLane="random" />
	<vehicle id="v4450" depart="351.92" route="sr6925" type="CarDefault" departLane="random" />
	<vehicle id="v2713" depart="352.13" route="r11492" type="CarDefault" departLane="random" />
	<vehicle id="v2538" depart="354" route="r11492" type="CarDefault" departLane="random" />
	<vehicle id="v2714" depart="355.88" route="r11492" type="CarDefault" departLane="random" />
	<vehicle id="v4451" depart="356.67" route="sr6925" type="CarDefault" departLane="random" />
	<vehicle id="v3616" depart="358.97" route="r11493" type="CarDefault" departLane="random" />
	<vehicle id="v2715" depart="359.63" route="r11492" type="CarDefault" departLane="random" />
	<vehicle id="v4452" depart="361.43" route="sr6925" type="CarDefault" departLane="random" />
	<vehicle id="v2716" depart="363.37" route="r11492" type="CarDefault" departLane="random" />
	<vehicle id="v4453" depart="366.18" route="sr6925" type="CarDefault" departLane="random" />
	<vehicle id="v2717" depart="367.12" route="r11492" type="CarDefault" departLane="random" />
	<vehicle id="v3617" depart="369.23" route="r11493" type="CarDefault" departLane="random" />
	<vehicle id="v2718" depart="370.86" route="r11492" type="CarDefault" departLane="random" />
	<vehicle id="v4454" depart="370.94" route="sr6925" type="CarDefault" departLane="random" />
	<vehicle id="v2719" depart="374.61" route="r11492" type="CarDefault" departLane="random" />
	<vehicle id="v4455" depart="375.69" route="sr6925" type="CarDefault" departLane="random" />
	<vehicle id="v2720" depart="378.36" route="r11492" type="CarDefault" departLane="random" />
	<vehicle id="v3618" depart="379.49" route="r11493" type="CarDefault" departLane="random" />
	<vehicle id="v4456" depart="380.45" route="sr6925" type="CarDefault" departLane="random" />
	<vehicle id="v2721" depart="382.1" route="r11492" type="CarDefault" departLane="random" />
	<vehicle id="v4457" depart="385.2" route="sr6925" type="CarDefault" departLane="random" />
	<vehicle id="v2722" depart="385.85" route="r11492" type="CarDefault" departLane="random" />
	<vehicle id="v2723" depart="389.59" route="r11492" type="CarDefault" departLane="random" />
	<vehicle id="v3619" depart="389.74" route="r11493" type="CarDefault" departLane="random" />
	<vehicle id="v4458" depart="389.96" route="sr6925" type="CarDefault" departLane="random" />
	<vehicle id="v2724" depart="393.34" route="r11492" type="CarDefault" departLane="random" />
	<vehicle id="v4459" depart="394.72" route="r11494" type="CarDefault" departLane="random" />
	<vehicle id="v2725" depart="397.09" route="r11492" type="CarDefault" departLane="random" />
	<vehicle id="v4460" depart="399.47" route="r11494" type="CarDefault" departLane="random" />
	<vehicle id="v3620" depart="400.0" route="r11493" type="CarDefault" departLane="random" />
	<vehicle id="v2726" depart="400.83" route="r11492" type="CarDefault" departLane="random" />
	<vehicle id="v4461" depart="404.23" route="r11494" type="CarDefault" departLane="random" />
	<vehicle id="v2727" depart="404.58" route="r11492" type="CarDefault" departLane="random" />
	<vehicle id="v2728" depart="408.32" route="r11492" type="CarDefault" departLane="random" />
	<vehicle id="v4462" depart="408.98" route="r11494" type="CarDefault" departLane="random" />
	<vehicle id="v4299" depart="409" route="r11494" type="CarDefault" departLane="random" />
	<vehicle id="v3621" depart="410.26" route="r11493" type="CarDefault" departLane="random" />
	<vehicle id="v2729" depart="412.07" route="r11492" type="CarDefault" departLane="random" />
	<vehicle id="v4463" depart="413.74" route="r11494" type="CarDefault" departLane="random" />
	<vehicle id="v2730" depart="415.82" route="r11492" type="CarDefault" departLane="random" />
	<vehicle id="v4464" depart="418.49" route="r11494" type="CarDefault" departLane="random" />
	<vehicle id="v2731" depart="419.56" route="r11492" type="CarDefault" departLane="random" />
	<vehicle id="v3622" depart="420.51" route="r11493" type="CarDefault" departLane="random" />
	<vehicle id="v4465" depart="423.25" route="r11494" type="CarDefault" departLane="random" />
	<vehicle id="v2732" depart="423.31" route="r11492" type="CarDefault" departLane="random" />
	<vehicle id="v4300" depart="426" route="r11494" type="CarDefault" departLane="random" />
	<vehicle id="v2733" depart="427.06" route="r11492" type="CarDefault" departLane="random" />
	<vehicle id="v4466" depart="428.01" route="r11494" type="CarDefault" departLane="random" />
	<vehicle id="v3623" depart="430.77" route="r11493" type="CarDefault" departLane="random" />
	<vehicle id="v2734" depart="430.8" route="r11492" type="CarDefault" departLane="random" />
	<vehicle id="v4467" depart="432.76" route="r11494" type="CarDefault" departLane="random" />
	<vehicle id="v2735" depart="434.55" route="r11492" type="CarDefault" departLane="random" />
	<vehicle id="v4468" depart="437.52" route="r11494" type="CarDefault" departLane="random" />
	<vehicle id="v2736" depart="438.29" route="r11492" type="CarDefault" departLane="random" />
	<vehicle id="v3624" depart="441.03" route="r11493" type="CarDefault" departLane="random" />
	<vehicle id="v2737" depart="442.04" route="r11492" type="CarDefault" departLane="random" />
	<vehicle id="v4469" depart="442.27" route="r11494" type="CarDefault" departLane="random" />
	<vehicle id="v4301" depart="445" route="r11494" type="CarDefault" departLane="random" />
	<vehicle id="v2738" depart="445.79" route="r11492" type="CarDefault" departLane="random" />
	<vehicle id="v4470" depart="447.03" route="r11494" type="CarDefault" departLane="random" />
	<vehicle id="v2739" depart="449.53" route="r11492" type="CarDefault" departLane="random" />
	<vehicle id="v3625" depart="451.28" route="r11493" type="CarDefault" departLane="random" />
	<vehicle id="v4471" depart="451.78" route="sr6925" type="CarDefault" departLane="random" />
	<vehicle id="v2740" depart="453.28" route="r11492" type="CarDefault" departLane="random" />
	<vehicle id="v4472" depart="456.54" route="sr6925" type="CarDefault" departLane="random" />
	<vehicle id="v2741" depart="457.02" route="r11492" type="CarDefault" departLane="random" />
	<vehicle id="v2742" depart="460.77" route="r11492" type="CarDefault" departLane="random" />
	<vehicle id="v4473" depart="461.29" route="sr6925" type="CarDefault" departLane="random" />
	<vehicle id="v3626" depart="461.54" route="r11493" type="CarDefault" departLane="random" />
	<vehicle id="v2539" depart="463" route="r11492" type="CarDefault" departLane="random" />
	<vehicle id="v4302" depart="463" route="sr6925" type="CarDefault" departLane="random" />
	<vehicle id="v2743" depart="464.52" route="r11492" type="CarDefault" departLane="random" />
	<vehicle id="v4474" depart="466.05" route="sr6925" type="CarDefault" departLane="random" />
	<vehicle id="v2744" depart="468.26" route="r11492" type="CarDefault" departLane="random" />
	<vehicle id="v4475" depart="470.81" route="sr6925" type="CarDefault" departLane="random" />
	<vehicle id="v3627" depart="471.79" route="r11493" type="CarDefault" departLane="random" />
	<vehicle id="v2745" depart="472.01" route="r11492" type="CarDefault" departLane="random" />
	<vehicle id="v4476" depart="475.56" route="sr6925" type="CarDefault" departLane="random" />
	<vehicle id="v2746" depart="475.75" route="r11492" type="CarDefault" departLane="random" />
	<vehicle id="v2747" depart="479.5" route="r11492" type="CarDefault" departLane="random" />
	<vehicle id="v4477" depart="480.32" route="sr6925" type="CarDefault" departLane="random" />
	<vehicle id="v3628" depart="482.05" route="sr6924" type="CarDefault" departLane="random" />
	<vehicle id="v2748" depart="483.25" route="sr6923" type="CarDefault" departLane="random" />
	<vehicle id="v4478" depart="485.07" route="sr6925" type="CarDefault" departLane="random" />
	<vehicle id="v2749" depart="486.99" route="sr6923" type="CarDefault" departLane="random" />
	<vehicle id="v4303" depart="489" route="sr6925" type="CarDefault" departLane="random" />
	<vehicle id="v4479" depart="489.83" route="sr6925" type="CarDefault" departLane="random" />