<?xml version='1.0' encoding='utf-8'?>
<routes>
	<vType accel="3.0" decel="6.0" id="CarDefault" length="5.0" minGap="2.5" maxSpeed="50.0" sigma="0.5" />
	<route id="sr3155" edges="55 169 130 131 56 73 105 1 30 50 157 154 125 143 144" fromJunction="83" toJunction="70" />
	<route id="sr3156" edges="15 139 97 119 117 120 136 137 138 5 9 21 32 31 182 75 78 79" fromJunction="15" toJunction="73" />
	<route id="sr3157" edges="22 12 112 19 8 0 32 31 182 87 88 89 179 178" fromJunction="78" toJunction="19" />
	<route id="sr3158" edges="13 83 118 136 137 138 5 63 135 163 54 53" fromJunction="69" toJunction="81" />
	<vehicle id="v10824" depart="0.0" route="sr3155" type="CarDefault" departLane="random" />
	<vehicle id="v11531" depart="0.0" route="sr3156" type="CarDefault" departLane="random" />
	<vehicle id="v12596" depart="0.0" route="sr3157" type="CarDefault" departLane="random" />
	<vehicle id="v13265" depart="0.0" route="sr3158" type="CarDefault" departLane="random" />
	<vehicle id="v12597" depart="5.39" route="sr3157" type="CarDefault" departLane="random" />
	<vehicle id="v11532" depart="7.41" route="sr3156" type="CarDefault" departLane="random" />
	<vehicle id="v13266" depart="8.82" route="sr3158" type="CarDefault" departLane="random" />
	<vehicle id="v10825" depart="10.26" route="sr3155" type="CarDefault" departLane="random" />
	<vehicle id="v12598" depart="10.78" route="sr3157" type="CarDefault" departLane="random" />
	<vehicle id="v11533" depart="14.81" route="sr3156" type="CarDefault" departLane="random" />
	<vehicle id="v12599" depart="16.17" route="sr3157" type="CarDefault" departLane="random" />
	<vehicle id="v13267" depart="17.65" route="sr3158" type="CarDefault" departLane="random" />
	<vehicle id="v10826" depart="20.51" route="sr3155" type="CarDefault" departLane="random" />
	<vehicle id="v12600" depart="21.56" route="sr3157" type="CarDefault" departLane="random" />
	<vehicle id="v11534" depart="22.22" route="sr3156" type="CarDefault" departLane="random" />
	<vehicle id="v13268" depart="26.47" route="sr3158" type="CarDefault" departLane="random" />
	<vehicle id="v12601" depart="26.95" route="sr3157" type="CarDefault" departLane="random" />
	<vehicle id="v11535" depart="29.63" route="sr3156" type="CarDefault" departLane="random" />
	<vehicle id="v10827" depart="30.77" route="sr3155" type="CarDefault" departLane="random" />
	<vehicle id="v12602" depart="32.34" route="sr3157" type="CarDefault" departLane="random" />
	<vehicle id="v13269" depart="35.29" route="sr3158" type="CarDefault" departLane="random" />
	<vehicle id="v11536" depart="37.04" route="sr3156" type="CarDefault" departLane="random" />
	<vehicle id="v12603" depart="37.72" route="sr3157" type="CarDefault" departLane="random" />
	<vehicle id="v10828" depart="41.03" route="sr3155" type="CarDefault" departLane="random" />
	<vehicle id="v12604" depart="43.11" route="sr3157" type="CarDefault" departLane="random" />
	<vehicle id="v13270" depart="44.12" route="sr3158" type="CarDefault" departLane="random" />
	<vehicle id="v11537" depart="44.44" route="sr3156" type="CarDefault" departLane="random" />
	<vehicle id="v12605" depart="48.5" route="sr3157" type="CarDefault" departLane="random" />
	<vehicle id="v10829" depart="51.28" route="sr3155" type="CarDefault" departLane="random" />
	<vehicle id="v11538" depart="51.85" route="sr3156" type="CarDefault" departLane="random" />
	<vehicle id="v13271" depart="52.94" route="sr3158" type="CarDefault" departLane="random" />
	<vehicle id="v12606" depart="53.89" route="sr3157" type="CarDefault" departLane="random" />
	<vehicle id="v11539" depart="59.26" route="sr3156" type="CarDefault" departLane="random" />
	<vehicle id="v12607" depart="59.28" route="sr3157" type="CarDefault" departLane="random" />
	<vehicle id="v10830" depart="61.54" route="sr3155" type="CarDefault" departLane="random" />
	<vehicle id="v13272" depart="61.76" route="sr3158" type="CarDefault" departLane="random" />
	<vehicle id="v12608" depart="64.67" route="sr3157" type="CarDefault" departLane="random" />
	<vehicle id="v11540" depart="66.67" route="sr3156" type="CarDefault" departLane="random" />
	<vehicle id="v12508" depart="70" route="sr3157" type="CarDefault" departLane="random" />
	<vehicle id="v12609" depart="70.06" route="sr3157" type="CarDefault" departLane="random" />
	<vehicle id="v13273" depart="70.59" route="sr3158" type="CarDefault" departLane="random" />
	<vehicle id="v10831" depart="71.79" route="sr3155" type="CarDefault" departLane="random" />
	<vehicle id="v11541" depart="74.07" route="sr3156" type="CarDefault" departLane="random" />
	<vehicle id="v12610" depart="75.45" route="sr3157" type="CarDefault" departLane="random" />
	<vehicle id="v13274" depart="79.41" route="sr3158" type="CarDefault" departLane="random" />
	<vehicle id="v12611" depart="80.84" route="sr3157" type="CarDefault" departLane="random" />
	<vehicle id="v11542" depart="81.48" route="sr3156" type="CarDefault" departLane="random" />
	<vehicle id="v10832" depart="82.05" route="sr3155" type="CarDefault" departLane="random" />
	<vehicle id="v12612" depart="86.23" route="sr3157" type="CarDefault" departLane="random" />
	<vehicle id="v13275" depart="88.24" route="sr3158" type="CarDefault" departLane="random" />
	<vehicle id="v11543" depart="88.89" route="sr3156" type="CarDefault" departLane="random" />
	<vehicle id="v12613" depart="91.62" route="sr3157" type="CarDefault" departLane="random" />
	<vehicle id="v10833" depart="92.31" route="sr3155" type="CarDefault" departLane="random" />
	<vehicle id="v11544" depart="96.3" route="sr3156" type="CarDefault" departLane="random" />
	<vehicle id="v12614" depart="97.01" route="sr3157" type="CarDefault" departLane="random" />
	<vehicle id="v13276" depart="97.06" route="sr3158" type="CarDefault" departLane="random" />
	<vehicle id="v12615" depart="102.4" route="sr3157" type="CarDefault" departLane="random" />
	<vehicle id="v10834" depart="102.56" route="sr3155" type="CarDefault" departLane="random" />
	<vehicle id="v11545" depart="103.7" route="sr3156" type="CarDefault" departLane="random" />
	<vehicle id="v13277" depart="105.88" route="sr3158" type="CarDefault" departLane="random" />
	<vehicle id="v12616" depart="107.78" route="sr3157" type="CarDefault" departLane="random" />
	<vehicle id="v12509" depart="111" route="sr3157" type="CarDefault" departLane="random" />
	<vehicle id="v11546" depart="111.11" route="sr3156" type="CarDefault" departLane="random" />
	<vehicle id="v10835" depart="112.82" route="sr3155" type="CarDefault" departLane="random" />
	<vehicle id="v12617" depart="113.17" route="sr3157" type="CarDefault" departLane="random" />
	<vehicle id="v13278" depart="114.71" route="sr3158" type="CarDefault" departLane="random" />
	<vehicle id="v11547" depart="118.52" route="sr3156" type="CarDefault" departLane="random" />
	<vehicle id="v12618" depart="118.56" route="sr3157" type="CarDefault" departLane="random" />
	<vehicle id="v10836" depart="123.08" route="sr3155" type="CarDefault" departLane="random" />
	<vehicle id="v13279" depart="123.53" route="sr3158" type="CarDefault" departLane="random" />
	<vehicle id="v12619" depart="123.95" route="sr3157" type="CarDefault" departLane="random" />
	<vehicle id="v11548" depart="125.93" route="sr3156" type="CarDefault" departLane="random" />
	<vehicle id="v12620" depart="129.34" route="sr3157" type="CarDefault" departLane="random" />
	<vehicle id="v13280" depart="132.35" route="sr3158" type="CarDefault" departLane="random" />
	<vehicle id="v10837" depart="133.33" route="sr3155" type="CarDefault" departLane="random" />
	<vehicle id="v11549" depart="133.33" route="sr3156" type="CarDefault" departLane="random" />
	<vehicle id="v12621" depart="134.73" route="sr3157" type="CarDefault" departLane="random" />
	<vehicle id="v12622" depart="140.12" route="sr3157" type="CarDefault" departLane="random" />
	<vehicle id="v11550" depart="140.74" route="sr3156" type="CarDefault" departLane="random" />
	<vehicle id="v13281" depart="141.18" route="sr3158" type="CarDefault" departLane="random" />
	<vehicle id="v10838" depart="143.59" route="sr3155" type="CarDefault" departLane="random" />
	<vehicle id="v12623" depart="145.51" route="sr3157" type="CarDefault" departLane="random" />
	<vehicle id="v12510" depart="148" route="sr3157" type="CarDefault" departLane="random" />
	<vehicle id="v11551" depart="148.15" route="sr3156" type="CarDefault" departLane="random" />
	<vehicle id="v13282" depart="150.0" route="sr3158" type="CarDefault" departLane="random" />
	<vehicle id="v12624" depart="150.9" route="sr3157" type="CarDefault" departLane="random" />
	<vehicle id="v10839" depart="153.85" route="sr3155" type="CarDefault" departLane="random" />
	<vehicle id="v11552" depart="155.56" route="sr3156" type="CarDefault" departLane="random" />
	<vehicle id="v12625" depart="156.29" route="sr3157" type="CarDefault" departLane="random" />
	<vehicle id="v13283" depart="158.82" route="sr3158" type="CarDefault" departLane="random" />
	<vehicle id="v12626" depart="161.68" route="sr3157" type="CarDefault" departLane="random" />
	<vehicle id="v11553" depart="162.96" route="sr3156" type="CarDefault" departLane="random" />
	<vehicle id="v10840" depart="164.1" route="sr3155" type="CarDefault" departLane="random" />
	<vehicle id="v12627" depart="167.07" route="sr3157" type="CarDefault" departLane="random" />
	<vehicle id="v13284" depart="167.65" route="sr3158" type="CarDefault" departLane="random" />
	<vehicle id="v11554" depart="170.37" route="sr3156" type="CarDefault" departLane="random" />
	<vehicle id="v12628" depart="172.46" route="sr3157" type="CarDefault" departLane="random" />
	<vehicle id="v10841" depart="174.36" route="sr3155" type="CarDefault" departLane="random" />
	<vehicle id="v13285" depart="176.47" route="sr3158" type="CarDefault" departLane="random" />
	<vehicle id="v11555" depart="177.78" route="sr3156" type="CarDefault" departLane="random" />
	<vehicle id="v12629" depart="177.84" route="sr3157" type="CarDefault" departLane="random" />
	<vehicle id="v12630" depart="183.23" route="sr3157" type="CarDefault" departLane="random" />
	<vehicle id="v10842" depart="184.62" route="sr3155" type="CarDefault" departLane="random" />
	<vehicle id="v11556" depart="185.19" route="sr3156" type="CarDefault" departLane="random" />
	<vehicle id="v13286" depart="185.29" route="sr3158" type="CarDefault" departLane="random" />
	<vehicle id="v12631" depart="188.62" route="sr3157" type="CarDefault" departLane="random" />
	<vehicle id="v11557" depart="192.59" route="sr3156" type="CarDefault" departLane="random" />
	<vehicle id="v12632" depart="194.01" route="sr3157" type="CarDefault" departLane="random" />
	<vehicle id="v13287" depart="194.12" route="sr3158" type="CarDefault" departLane="random" />
	<vehicle id="v10843" depart="194.87" route="sr3155" type="CarDefault" departLane="random" />
	<vehicle id="v12633" depart="199.4" route="sr3157" type="CarDefault" departLane="random" />
	<vehicle id="v11558" depart="200.0" route="sr3156" type="CarDefault" departLane="random" />
	<vehicle id="v13288" depart="202.94" route="sr3158" type="CarDefault" departLane="random" />
	<vehicle id="v12511" depart="204" route="sr3157" type="CarDefault" departLane="random" />
	<vehicle id="v12634" depart="204.79" route="sr3157" type="CarDefault" departLane="random" />
	<vehicle id="v10844" depart="205.13" route="sr3155" type="CarDefault" departLane="random" />
	<vehicle id="v11559" depart="207.41" route="sr3156" type="CarDefault" departLane="random" />
	<vehicle id="v12635" depart="210.18" route="sr3157" type="CarDefault" departLane="random" />
	<vehicle id="v13289" depart="211.76" route="sr3158" type="CarDefault" departLane="random" />
	<vehicle id="v11560" depart="214.81" route="sr3156" type="CarDefault" departLane="random" />
	<vehicle id="v10845" depart="215.38" route="sr3155" type="CarDefault" departLane="random" />
	<vehicle id="v12636" depart="215.57" route="sr3157" type="CarDefault" departLane="random" />
	<vehicle id="v13290" depart="220.59" route="sr3158" type="CarDefault" departLane="random" />
	<vehicle id="v12637" depart="220.96" route="sr3157" type="CarDefault" departLane="random" />
	<vehicle id="v11561" depart="222.22" route="sr3156" type="CarDefault" departLane="random" />
	<vehicle id="v10846" depart="225.64" route="sr3155" type="CarDefault" departLane="random" />
	<vehicle id="v12638" depart="226.35" route="sr3157" type="CarDefault" departLane="random" />
	<vehicle id="v13291" depart="229.41" route="sr3158" type="CarDefault" departLane="random" />
	<vehicle id="v11562" depart="229.63" route="sr3156" type="CarDefault" departLane="random" />
	<vehicle id="v12639" depart="231.74" route="sr3157" type="CarDefault" departLane="random" />
	<vehicle id="v10847" depart="235.9" route="sr3155" type="CarDefault" departLane="random" />
	<vehicle id="v11563" depart="237.04" route="sr3156" type="CarDefault" departLane="random" />
	<vehicle id="v12640" depart="237.13" route="sr3157" type="CarDefault" departLane="random" />
	<vehicle id="v13292" depart="238.24" route="sr3158" type="CarDefault" departLane="random" />
	<vehicle id="v12641" depart="242.51" route="sr3157" type="CarDefault" departLane="random" />
	<vehicle id="v11564" depart="244.44" route="sr3156" type="CarDefault" departLane="random" />
	<vehicle id="v10848" depart="246.15" route="sr3155" type="CarDefault" departLane="random" />
	<vehicle id="v13293" depart="247.06" route="sr3158" type="CarDefault" departLane="random" />
	<vehicle id="v12642" depart="247.9" route="sr3157" type="CarDefault" departLane="random" />
	<vehicle id="v11565" depart="251.85" route="sr3156" type="CarDefault" departLane="random" />
	<vehicle id="v12643" depart="253.29" route="sr3157" type="CarDefault" departLane="random" />
	<vehicle id="v13294" depart="255.88" route="sr3158" type="CarDefault" departLane="random" />
	<vehicle id="v10849" depart="256.41" route="sr3155" type="CarDefault" departLane="random" />
	<vehicle id="v12644" depart="258.68" route="sr3157" type="CarDefault" departLane="random" />
	<vehicle id="v11566" depart="259.26" route="sr3156" type="CarDefault" departLane="random" />
	<vehicle id="v12645" depart="264.07" route="sr3157" type="CarDefault" departLane="random" />
	<vehicle id="v13295" depart="264.71" route="sr3158" type="CarDefault" departLane="random" />
	<vehicle id="v10850" depart="266.67" route="sr3155" type="CarDefault" departLane="random" />
	<vehicle id="v11567" depart="266.67" route="sr3156" type="CarDefault" departLane="random" />
	<vehicle id="v12646" depart="269.46" route="sr3157" type="CarDefault" departLane="random" />
	<vehicle id="v13296" depart="273.53" route="sr3158" type="CarDefault" departLane="random" />
	<vehicle id="v11568" depart="274.07" route="sr3156" type="CarDefault" departLane="random" />
	<vehicle id="v12647" depart="274.85" route="sr3157" type="CarDefault" departLane="random" />
	<vehicle id="v12512" depart="276" route="sr3157" type="CarDefault" departLane="random" />
	<vehicle id="v10851" depart="276.92" route="sr3155" type="CarDefault" departLane="random" />
	<vehicle id="v12648" depart="280.24" route="sr3157" type="CarDefault" departLane="random" />
	<vehicle id="v11569" depart="281.48" route="sr3156" type="CarDefault" departLane="random" />
	<vehicle id="v13297" depart="282.35" route="sr3158" type="CarDefault" departLane="random" />
	<vehicle id="v12649" depart="285.63" route="sr3157" type="CarDefault" departLane="random" />
	<vehicle id="v10852" depart="287.18" route="sr3155" type="CarDefault" departLane="random" />
	<vehicle id="v11570" depart="288.89" route="sr3156" type="CarDefault" departLane="random" />
	<vehicle id="v12650" depart="291.02" route="sr3157" type="CarDefault" departLane="random" />
	<vehicle id="v13298" depart="291.18" route="sr3158" type="CarDefault" departLane="random" />
	<vehicle id="v12513" depart="295" route="sr3157" type="CarDefault" departLane="random" />
	<vehicle id="v11571" depart="296.3" route="sr3156" type="CarDefault" departLane="random" />
	<vehicle id="v12651" depart="296.41" route="sr3157" type="CarDefault" departLane="random" />
	<vehicle id="v10853" depart="297.44" route="sr3155" type="CarDefault" departLane="random" />
	<vehicle id="v13299" depart="300.0" route="sr3158" type="CarDefault" departLane="random" />
	<vehicle id="v12652" depart="301.8" route="sr3157" type="CarDefault" departLane="random" />
	<vehicle id="v11572" depart="303.7" route="sr3156" type="CarDefault" departLane="random" />
	<vehicle id="v12653" depart="307.19" route="sr3157" type="CarDefault" departLane="random" />
	<vehicle id="v10854" depart="307.69" route="sr3155" type="CarDefault" departLane="random" />
	<vehicle id="v13300" depart="308.82" route="sr3158" type="CarDefault" departLane="random" />
	<vehicle id="v11573" depart="311.11" route="sr3156" type="CarDefault" departLane="random" />
	<vehicle id="v12654" depart="312.57" route="sr3157" type="CarDefault" departLane="random" />
	<vehicle id="v12514" depart="317" route="sr3157" type="CarDefault" departLane="random" />
	<vehicle id="v13301" depart="317.65" route="sr3158" type="CarDefault" departLane="random" />
	<vehicle id="v10855" depart="317.95" route="sr3155" type="CarDefault" departLane="random" />
	<vehicle id="v12655" depart="317.96" route="sr3157" type="CarDefault" departLane="random" />
	<vehicle id="v11574" depart="318.52" route="sr3156" type="CarDefault" departLane="random" />
	<vehicle id="v12656" depart="323.35" route="sr3157" type="CarDefault" departLane="random" />
	<vehicle id="v11575" depart="325.93" route="sr3156" type="CarDefault" departLane="random" />
	<vehicle id="v13302" depart="326.47" route="sr3158" type="CarDefault" departLane="random" />
	<vehicle id="v10856" depart="328.21" route="sr3155" type="CarDefault" departLane="random" />
	<vehicle id="v12657" depart="328.74" route="sr3157" type="CarDefault" departLane="random" />
	<vehicle id="v11576" depart="333.33" route="sr3156" type="CarDefault" departLane="random" />
	<vehicle id="v12658" depart="334.13" route="sr3157" type="CarDefault" departLane="random" />
	<vehicle id="v13303" depart="335.29" route="sr3158" type="CarDefault" departLane="random" />
	<vehicle id="v10857" depart="338.46" route="sr3155" type="CarDefault" departLane="random" />
	<vehicle id="v12659" depart="339.52" route="sr3157" type="CarDefault" departLane="random" />
	<vehicle id="v11577" depart="340.74" route="sr3156" type="CarDefault" departLane="random" />
	<vehicle id="v12515" depart="342" route="sr3157" type="CarDefault" departLane="random" />
	<vehicle id="v13304" depart="344.12" route="sr3158" type="CarDefault" departLane="random" />
	<vehicle id="v12660" depart="344.91" route="sr3157" type="CarDefault" departLane="random" />
	<vehicle id="v11578" depart="348.15" route="sr3156" type="CarDefault" departLane="random" />
	<vehicle id="v10858" depart="348.72" route="sr3155" type="CarDefault" departLane="random" />
	<vehicle id="v12661" depart="350.3" route="sr3157" type="CarDefault" departLane="random" />
	<vehicle id="v13305" depart="352.94" route="sr3158" type="CarDefault" departLane="random" />
	<vehicle id="v11579" depart="355.56" route="sr3156" type="CarDefault" departLane="random" />
	<vehicle id="v12662" depart="355.69" route="sr3157" type="CarDefault" departLane="random" />
	<vehicle id="v10859" depart="358.97" route="sr3155" type="CarDefault" departLane="random" />
	<vehicle id="v12663" depart="361.08" route="sr3157" type="CarDefault" departLane="random" />
	<vehicle id="v13306" depart="361.76" route="sr3158" type="CarDefault" departLane="random" />
	<vehicle id="v11580" depart="362.96" route="sr3156" type="CarDefault" departLane="random" />
	<vehicle id="v12664" depart="366.47" route="sr3157" type="CarDefault" departLane="random" />
	<vehicle id="v10860" depart="369.23" route="sr3155" type="CarDefault" departLane="random" />
	<vehicle id="v11581" depart="370.37" route="sr3156" type="CarDefault" departLane="random" />
	<vehicle id="v13307" depart="370.59" route="sr3158" type="CarDefault" departLane="random" />
	<vehicle id="v12665" depart="371.86" route="sr3157" type="CarDefault" departLane="random" />
	<vehicle id="v12666" depart="377.25" route="sr3157" type="CarDefault" departLane="random" />
	<vehicle id="v11582" depart="377.78" route="sr3156" type="CarDefault" departLane="random" />
	<vehicle id="v12516" depart="379" route="sr3157" type="CarDefault" departLane="random" />
	<vehicle id="v13308" depart="379.41" route="sr3158" type="CarDefault" departLane="random" />
	<vehicle id="v10861" depart="379.49" route="sr3155" type="CarDefault" departLane="random" />
	<vehicle id="v12667" depart="382.63" route="sr3157" type="CarDefault" departLane="random" />
	<vehicle id="v11583" depart="385.19" route="sr3156" type="CarDefault" departLane="random" />
	<vehicle id="v12668" depart="388.02" route="sr3157" type="CarDefault" departLane="random" />
	<vehicle id="v13309" depart="388.24" route="sr3158" type="CarDefault" departLane="random" />
	<vehicle id="v10862" depart="389.74" route="sr3155" type="CarDefault" departLane="random" />
	<vehicle id="v11584" depart="392.59" route="sr3156" type="CarDefault" departLane="random" />
	<vehicle id="v12669" depart="393.41" route="sr3157" type="CarDefault" departLane="random" />
	<vehicle id="v13310" depart="397.06" route="sr3158" type="CarDefault" departLane="random" />
	<vehicle id="v12670" depart="398.8" route="sr3157" type="CarDefault" departLane="random" />
	<vehicle id="v10863" depart="400.0" route="sr3155" type="CarDefault" departLane="random" />
	<vehicle id="v11585" depart="400.0" route="sr3156" type="CarDefault" departLane="random" />
	<vehicle id="v12671" depart="404.19" route="sr3157" type="CarDefault" departLane="random" />
	<vehicle id="v13311" depart="405.88" route="sr3158" type="CarDefault" departLane="random" />
	<vehicle id="v11586" depart="407.41" route="sr3156" type="CarDefault" departLane="random" />
	<vehicle id="v12672" depart="409.58" route="sr3157" type="CarDefault" departLane="random" />
	<vehicle id="v10864" depart="410.26" route="sr3155" type="CarDefault" departLane="random" />
	<vehicle id="v13312" depart="414.71" route="sr3158" type="CarDefault" departLane="random" />
	<vehicle id="v11587" depart="414.81" route="sr3156" type="CarDefault" departLane="random" />
	<vehicle id="v12673" depart="414.97" route="sr3157" type="CarDefault" departLane="random" />
	<vehicle id="v12674" depart="420.36" route="sr3157" type="CarDefault" departLane="random" />
	<vehicle id="v10865" depart="420.51" route="sr3155" type="CarDefault" departLane="random" />
	<vehicle id="v11588" depart="422.22" route="sr3156" type="CarDefault" departLane="random" />
	<vehicle id="v13313" depart="423.53" route="sr3158" type="CarDefault" departLane="random" />
	<vehicle id="v12675" depart="425.75" route="sr3157" type="CarDefault" departLane="random" />
	<vehicle id="v11589" depart="429.63" route="sr3156" type="CarDefault" departLane="random" />
	<vehicle id="v10866" depart="430.77" route="sr3155" type="CarDefault" departLane="random" />
	<vehicle id="v12676" depart="431.14" route="sr3157" type="CarDefault" departLane="random" />
	<vehicle id="v13314" depart="432.35" route="sr3158" type="CarDefault" departLane="random" />
	<vehicle id="v12677" depart="436.53" route="sr3157" type="CarDefault" departLane="random" />
	<vehicle id="v11590" depart="437.04" route="sr3156" type="CarDefault" departLane="random" />
	<vehicle id="v10867" depart="441.03" route="sr3155" type="CarDefault" departLane="random" />
	<vehicle id="v13315" depart="441.18" route="sr3158" type="CarDefault" departLane="random" />
	<vehicle id="v12678" depart="441.92" route="sr3157" type="CarDefault" departLane="random" />
	<vehicle id="v11591" depart="444.44" route="sr3156" type="CarDefault" departLane="random" />
	<vehicle id="v12679" depart="447.31" route="sr3157" type="CarDefault" departLane="random" />
	<vehicle id="v13316" depart="450.0" route="sr3158" type="CarDefault" departLane="random" />
	<vehicle id="v10868" depart="451.28" route="sr3155" type="CarDefault" departLane="random" />
	<vehicle id="v11592" depart="451.85" route="sr3156" type="CarDefault" departLane="random" />
	<vehicle id="v12680" depart="452.69" route="sr3157" type="CarDefault" departLane="random" />
	<vehicle id="v12681" depart="458.08" route="sr3157" type="CarDefault" departLane="random" />
	<vehicle id="v13317" depart="458.82" route="sr3158" type="CarDefault" departLane="random" />
	<vehicle id="v11593" depart="459.26" route="sr3156" type="CarDefault" departLane="random" />
	<vehicle id="v10869" depart="461.54" route="sr3155" type="CarDefault" departLane="random" />
	<vehicle id="v12682" depart="463.47" route="sr3157" type="CarDefault" departLane="random" />
	<vehicle id="v11594" depart="466.67" route="sr3156" type="CarDefault" departLane="random" />
	<vehicle id="v13318" depart="467.65" route="sr3158" type="CarDefault" departLane="random" />
	<vehicle id="v12683" depart="468.86" route="sr3157" type="CarDefault" departLane="random" />
	<vehicle id="v10870" depart="471.79" route="sr3155" type="CarDefault" departLane="random" />
	<vehicle id="v11595" depart="474.07" route="sr3156" type="CarDefault" departLane="random" />
	<vehicle id="v12684" depart="474.25" route="sr3157" type="CarDefault" departLane="random" />
	<vehicle id="v13319" depart="476.47" route="sr3158" type="CarDefault" departLane="random" />
	<vehicle id="v12517" depart="478" route="sr3157" type="CarDefault" departLane="random" />
	<vehicle id="v12685" depart="479.64" route="sr3157" type="CarDefault" departLane="random" />
	<vehicle id="v11596" depart="481.48" route="sr3156" type="CarDefault" departLane="random" />
	<vehicle id="v10871" depart="482.05" route="sr3155" type="CarDefault" departLane="random" />
	<vehicle id="v12686" depart="485.03" route="sr3157" type="CarDefault" departLane="random" />
	<vehicle id="v13320" depart="485.29" route="sr3158" type="CarDefault" departLane="random" />
	<vehicle id="v11597" depart="488.89" route="sr3156" type="CarDefault" departLane="random" />
	<vehicle id="v12687" depart="490.42" route="sr3157" type="CarDefault" departLane="random" />
	<vehicle id="v10872" depart="492.31" route="sr3155" type="CarDefault" departLane="random" />
	<vehicle id="v13321" depart="494.12" route="sr3158" type="CarDefault" departLane="random" />
	<vehicle id="v12688" depart="495.81" route="sr3157" type="CarDefault" departLane="random" />
	<vehicle id="v11598" depart="496.3" route="sr3156" type="CarDefault" departLane="random" />
	<vehicle id="v12689" depart="501.2" route="sr3157" type="CarDefault" departLane="random" />
	<vehicle id="v10873" depart="502.56" route="sr3155" type="CarDefault" departLane="random" />
	<vehicle id="v13322" depart="502.94" route="sr3158" type="CarDefault" departLane="random" />
	<vehicle id="v11599" depart="503.7" route="sr3156" type="CarDefault" departLane="random" />
	<vehicle id="v12690" depart="506.59" route="sr3157" type="CarDefault" departLane="random" />
	<vehicle id="v11600" depart="511.11" route="sr3156" type="CarDefault" departLane="random" />
	<vehicle id="v13323" depart="511.76" route="sr3158" type="CarDefault" departLane="random" />
	<vehicle id="v12691" depart="511.98" route="sr3157" type="CarDefault" departLane="random" />
	<vehicle id="v10874" depart="512.82" route="sr3155" type="CarDefault" departLane="random" />
	<vehicle id="v12692" depart="517.37" route="sr3157" type="CarDefault" departLane="random" />
	<vehicle id="v11601" depart="518.52" route="sr3156" type="CarDefault" departLane="random" />
	<vehicle id="v13324" depart="520.59" route="sr3158" type="CarDefault" departLane="random" />
	<vehicle id="v12693" depart="522.75" route="sr3157" type="CarDefault" departLane="random" />
	<vehicle id="v10875" depart="523.08" route="sr3155" type="CarDefault" departLane="random" />
	<vehicle id="v11602" depart="525.93" route="sr3156" type="CarDefault" departLane="random" />
	<vehicle id="v12694" depart="528.14" route="sr3157" type="CarDefault" departLane="random" />
	<vehicle id="v13325" depart="529.41" route="sr3158" type="CarDefault" departLane="random" />
	<vehicle id="v12518" depart="531" route="sr3157" type="CarDefault" departLane="random" />
	<vehicle id="v10876" depart="533.33" route="sr3155" type="CarDefault" departLane="random" />
	<vehicle id="v11603" depart="533.33" route="sr3156" type="CarDefault" departLane="random" />
	<vehicle id="v12695" depart="533.53" route="sr3157" type="CarDefault" departLane="random" />
	<vehicle id="v13326" depart="538.24" route="sr3158" type="CarDefault" departLane="random" />
	<vehicle id="v12696" depart="538.92" route="sr3157" type="CarDefault" departLane="random" />
	<vehicle id="v11604" depart="540.74" route="sr3156" type="CarDefault" departLane="random" />
	<vehicle id="v10877" depart="543.59" route="sr3155" type="CarDefault" departLane="random" />
	<vehicle id="v12697" depart="544.31" route="sr3157" type="CarDefault" departLane="random" />
	<vehicle id="v13327" depart="547.06" route="sr3158" type="CarDefault" departLane="random" />
	<vehicle id="v11605" depart="548.15" route="sr3156" type="CarDefault" departLane="random" />
	<vehicle id="v12519" depart="549" route="sr3157" type="CarDefault" departLane="random" />
	<vehicle id="v12698" depart="549.7" route="sr3157" type="CarDefault" departLane="random" />
	<vehicle id="v10878" depart="553.85" route="sr3155" type="CarDefault" departLane="random" />
	<vehicle id="v12699" depart="555.09" route="sr3157" type="CarDefault" departLane="random" />
	<vehicle id="v11606" depart="555.56" route="sr3156" type="CarDefault" departLane="random" />
	<vehicle id="v13328" depart="555.88" route="sr3158" type="CarDefault" departLane="random" />
	<vehicle id="v12700" depart="560.48" route="sr3157" type="CarDefault" departLane="random" />
	<vehicle id="v11607" depart="562.96" route="sr3156" type="CarDefault" departLane="random" />
	<vehicle id="v10879" depart="564.1" route="sr3155" type="CarDefault" departLane="random" />