<?xml version='1.0' encoding='utf-8'?>
<routes>
	<vType accel="3.0" decel="6.0" id="CarDefault" length="5.0" minGap="2.5" maxSpeed="50.0" sigma="0.5" />
	<route id="sr654" edges="611 612 425 358 359 360 410 411 441 442 443 444 438 439 440 329 559 560 561 541 542 578 391 85 84 250 249 396" fromJunction="227" toJunction="295" />
	<route id="sr655" edges="124 66 65 64 63 76 75 72 71 151 150 149 148 147 26 233 232 86 88 87 173 243 311 312 24 111 10 110 103 102 431 313 436 420 211 95 94" fromJunction="139" toJunction="73" />
	<route id="sr656" edges="604 605 579 580 306 543 544 350 602 76 75 72 71 74 73 59 68 192 191 190 189 188 69 70 272 347 287 632 365 366 603 353 354 239 447 448 23 58 38" fromJunction="226" toJunction="68" />
	<vehicle id="v91" depart="0.0" route="sr654" type="CarDefault" departLane="random" />
	<vehicle id="v837" depart="0.0" route="sr655" type="CarDefault" departLane="random" />
	<vehicle id="v2007" depart="0.0" route="sr656" type="CarDefault" departLane="random" />
	<vehicle id="v2008" depart="3.59" route="sr656" type="CarDefault" departLane="random" />
	<vehicle id="v92" depart="4.83" route="sr654" type="CarDefault" departLane="random" />
	<vehicle id="v838" depart="6.7" route="sr655" type="CarDefault" departLane="random" />
	<vehicle id="v2009" depart="7.19" route="sr656" type="CarDefault" departLane="random" />
	<vehicle id="v1917" depart="9" route="sr656" type="CarDefault" departLane="random" />
	<vehicle id="v93" depart="9.66" route="sr654" type="CarDefault" departLane="random" />
	<vehicle id="v2010" depart="10.78" route="sr656" type="CarDefault" departLane="random" />
	<vehicle id="v0" depart="13" route="sr654" type="CarDefault" departLane="random" />
	<vehicle id="v839" depart="13.41" route="sr655" type="CarDefault" departLane="random" />
	<vehicle id="v2011" depart="14.37" route="sr656" type="CarDefault" departLane="random" />
	<vehicle id="v94" depart="14.5" route="sr654" type="CarDefault" departLane="random" />
	<vehicle id="v2012" depart="17.96" route="sr656" type="CarDefault" departLane="random" />
	<vehicle id="v95" depart="19.33" route="sr654" type="CarDefault" departLane="random" />
	<vehicle id="v840" depart="20.11" route="sr655" type="CarDefault" departLane="random" />
	<vehicle id="v2013" depart="21.56" route="sr656" type="CarDefault" departLane="random" />
	<vehicle id="v96" depart="24.16" route="sr654" type="CarDefault" departLane="random" />
	<vehicle id="v2014" depart="25.15" route="sr656" type="CarDefault" departLane="random" />
	<vehicle id="v841" depart="26.82" route="sr655" type="CarDefault" departLane="random" />
	<vehicle id="v2015" depart="28.74" route="sr656" type="CarDefault" departLane="random" />
	<vehicle id="v97" depart="28.99" route="sr654" type="CarDefault" departLane="random" />
	<vehicle id="v1918" depart="30" route="sr656" type="CarDefault" departLane="random" />
	<vehicle id="v2016" depart="32.34" route="sr656" type="CarDefault" departLane="random" />
	<vehicle id="v842" depart="33.52" route="sr655" type="CarDefault" departLane="random" />
	<vehicle id="v98" depart="33.83" route="sr654" type="CarDefault" departLane="random" />
	<vehicle id="v2017" depart="35.93" route="sr656" type="CarDefault" departLane="random" />
	<vehicle id="v99" depart="38.66" route="sr654" type="CarDefault" departLane="random" />
	<vehicle id="v2018" depart="39.52" route="sr656" type="CarDefault" departLane="random" />
	<vehicle id="v843" depart="40.22" route="sr655" type="CarDefault" departLane="random" />
	<vehicle id="v1919" depart="41" route="sr656" type="CarDefault" departLane="random" />
	<vehicle id="v2019" depart="43.11" route="sr656" type="CarDefault" departLane="random" />
	<vehicle id="v100" depart="43.49" route="sr654" type="CarDefault" departLane="random" />
	<vehicle id="v2020" depart="46.71" route="sr656" type="CarDefault" departLane="random" />
	<vehicle id="v844" depart="46.93" route="sr655" type="CarDefault" departLane="random" />
	<vehicle id="v101" depart="48.32" route="sr654" type="CarDefault" departLane="random" />
	<vehicle id="v2021" depart="50.3" route="sr656" type="CarDefault" departLane="random" />
	<vehicle id="v102" depart="53.15" route="sr654" type="CarDefault" departLane="random" />
	<vehicle id="v845" depart="53.63" route="sr655" type="CarDefault" departLane="random" />
	<vehicle id="v2022" depart="53.89" route="sr656" type="CarDefault" departLane="random" />
	<vehicle id="v2023" depart="57.49" route="sr656" type="CarDefault" departLane="random" />
	<vehicle id="v103" depart="57.99" route="sr654" type="CarDefault" departLane="random" />
	<vehicle id="v846" depart="60.34" route="sr655" type="CarDefault" departLane="random" />
	<vehicle id="v2024" depart="61.08" route="sr656" type="CarDefault" departLane="random" />
	<vehicle id="v104" depart="62.82" route="sr654" type="CarDefault" departLane="random" />
	<vehicle id="v2025" depart="64.67" route="sr656" type="CarDefault" departLane="random" />
	<vehicle id="v847" depart="67.04" route="sr655" type="CarDefault" departLane="random" />
	<vehicle id="v105" depart="67.65" route="sr654" type="CarDefault" departLane="random" />
	<vehicle id="v2026" depart="68.26" route="sr656" type="CarDefault" departLane="random" />
	<vehicle id="v2027" depart="71.86" route="sr656" type="CarDefault" departLane="random" />
	<vehicle id="v106" depart="72.48" route="sr654" type="CarDefault" departLane="random" />
	<vehicle id="v848" depart="73.74" route="sr655" type="CarDefault" departLane="random" />
	<vehicle id="v2028" depart="75.45" route="sr656" type="CarDefault" departLane="random" />
	<vehicle id="v107" depart="77.32" route="sr654" type="CarDefault" departLane="random" />
	<vehicle id="v2029" depart="79.04" route="sr656" type="CarDefault" departLane="random" />
	<vehicle id="v849" depart="80.45" route="sr655" type="CarDefault" departLane="random" />
	<vehicle id="v108" depart="82.15" route="sr654" type="CarDefault" departLane="random" />
	<vehicle id="v2030" depart="82.63" route="sr656" type="CarDefault" departLane="random" />
	<vehicle id="v2031" depart="86.23" route="sr656" type="CarDefault" departLane="random" />
	<vehicle id="v109" depart="86.98" route="sr654" type="CarDefault" departLane="random" />
	<vehicle id="v850" depart="87.15" route="sr655" type="CarDefault" departLane="random" />
	<vehicle id="v2032" depart="89.82" route="sr656" type="CarDefault" departLane="random" />
	<vehicle id="v110" depart="91.81" route="sr654" type="CarDefault" departLane="random" />
	<vehicle id="v2033" depart="93.41" route="sr656" type="CarDefault" departLane="random" />
	<vehicle id="v851" depart="93.85" route="sr655" type="CarDefault" departLane="random" />
	<vehicle id="v111" depart="96.64" route="sr654" type="CarDefault" departLane="random" />
	<vehicle id="v2034" depart="97.01" route="sr656" type="CarDefault" departLane="random" />
	<vehicle id="v1" depart="98" route="sr654" type="CarDefault" departLane="random" />
	<vehicle id="v852" depart="100.56" route="sr655" type="CarDefault" departLane="random" />
	<vehicle id="v2035" depart="100.6" route="sr656" type="CarDefault" departLane="random" />
	<vehicle id="v112" depart="101.48" route="sr654" type="CarDefault" departLane="random" />
	<vehicle id="v2036" depart="104.19" route="sr656" type="CarDefault" departLane="random" />
	<vehicle id="v113" depart="106.31" route="sr654" type="CarDefault" departLane="random" />
	<vehicle id="v853" depart="107.26" route="sr655" type="CarDefault" departLane="random" />
	<vehicle id="v2037" depart="107.78" route="sr656" type="CarDefault" departLane="random" />
	<vehicle id="v114" depart="111.14" route="sr654" type="CarDefault" departLane="random" />
	<vehicle id="v2038" depart="111.38" route="sr656" type="CarDefault" departLane="random" />
	<vehicle id="v854" depart="113.97" route="sr655" type="CarDefault" departLane="random" />
	<vehicle id="v2039" depart="114.97" route="sr656" type="CarDefault" departLane="random" />
	<vehicle id="v115" depart="115.97" route="sr654" type="CarDefault" departLane="random" />
	<vehicle id="v2040" depart="118.56" route="sr656" type="CarDefault" departLane="random" />
	<vehicle id="v855" depart="120.67" route="sr655" type="CarDefault" departLane="random" />
	<vehicle id="v116" depart="120.81" route="sr654" type="CarDefault" departLane="random" />
	<vehicle id="v2041" depart="122.16" route="sr656" type="CarDefault" departLane="random" />
	<vehicle id="v117" depart="125.64" route="sr654" type="CarDefault" departLane="random" />
	<vehicle id="v2042" depart="125.75" route="sr656" type="CarDefault" departLane="random" />
	<vehicle id="v856" depart="127.37" route="sr655" type="CarDefault" departLane="random" />
	<vehicle id="v2043" depart="129.34" route="sr656" type="CarDefault" departLane="random" />
	<vehicle id="v118" depart="130.47" route="sr654" type="CarDefault" departLane="random" />
	<vehicle id="v2044" depart="132.93" route="sr656" type="CarDefault" departLane="random" />
	<vehicle id="v857" depart="134.08" route="sr655" type="CarDefault" departLane="random" />
	<vehicle id="v1920" depart="135" route="sr656" type="CarDefault" departLane="random" />
	<vehicle id="v119" depart="135.3" route="sr654" type="CarDefault" departLane="random" />
	<vehicle id="v2045" depart="136.53" route="sr656" type="CarDefault" departLane="random" />
	<vehicle id="v2046" depart="140.12" route="sr656" type="CarDefault" departLane="random" />
	<vehicle id="v120" depart="140.13" route="sr654" type="CarDefault" departLane="random" />
	<vehicle id="v858" depart="140.78" route="sr655" type="CarDefault" departLane="random" />
	<vehicle id="v2047" depart="143.71" route="sr656" type="CarDefault" departLane="random" />
	<vehicle id="v121" depart="144.97" route="sr654" type="CarDefault" departLane="random" />
	<vehicle id="v2" depart="145" route="sr654" type="CarDefault" departLane="random" />
	<vehicle id="v2048" depart="147.31" route="sr656" type="CarDefault" departLane="random" />
	<vehicle id="v859" depart="147.49" route="sr655" type="CarDefault" departLane="random" />
	<vehicle id="v122" depart="149.8" route="sr654" type="CarDefault" departLane="random" />
	<vehicle id="v2049" depart="150.9" route="sr656" type="CarDefault" departLane="random" />
	<vehicle id="v860" depart="154.19" route="sr655" type="CarDefault" departLane="random" />
	<vehicle id="v2050" depart="154.49" route="sr656" type="CarDefault" departLane="random" />
	<vehicle id="v123" depart="154.63" route="sr654" type="CarDefault" departLane="random" />
	<vehicle id="v2051" depart="158.08" route="sr656" type="CarDefault" departLane="random" />
	<vehicle id="v124" depart="159.46" route="sr654" type="CarDefault" departLane="random" />
	<vehicle id="v861" depart="160.89" route="sr655" type="CarDefault" departLane="random" />
	<vehicle id="v2052" depart="161.68" route="sr656" type="CarDefault" departLane="random" />
	<vehicle id="v125" depart="164.3" route="sr654" type="CarDefault" departLane="random" />
	<vehicle id="v2053" depart="165.27" route="sr656" type="CarDefault" departLane="random" />
	<vehicle id="v862" depart="167.6" route="sr655" type="CarDefault" departLane="random" />
	<vehicle id="v2054" depart="168.86" route="sr656" type="CarDefault" departLane="random" />
	<vehicle id="v126" depart="169.13" route="sr654" type="CarDefault" departLane="random" />
	<vehicle id="v2055" depart="172.46" route="sr656" type="CarDefault" departLane="random" />
	<vehicle id="v127" depart="173.96" route="sr654" type="CarDefault" departLane="random" />
	<vehicle id="v1921" depart="174" route="sr656" type="CarDefault" departLane="random" />
	<vehicle id="v863" depart="174.3" route="sr655" type="CarDefault" departLane="random" />
	<vehicle id="v2056" depart="176.05" route="sr656" type="CarDefault" departLane="random" />
	<vehicle id="v3" depart="178" route="sr654" type="CarDefault" departLane="random" />
	<vehicle id="v128" depart="178.79" route="sr654" type="CarDefault" departLane="random" />
	<vehicle id="v2057" depart="179.64" route="sr656" type="CarDefault" departLane="random" />
	<vehicle id="v864" depart="181.01" route="sr655" type="CarDefault" departLane="random" />
	<vehicle id="v2058" depart="183.23" route="sr656" type="CarDefault" departLane="random" />
	<vehicle id="v129" depart="183.62" route="sr654" type="CarDefault" departLane="random" />
	<vehicle id="v2059" depart="186.83" route="sr656" type="CarDefault" departLane="random" />
	<vehicle id="v865" depart="187.71" route="sr655" type="CarDefault" departLane="random" />
	<vehicle id="v130" depart="188.46" route="sr654" type="CarDefault" departLane="random" />
	<vehicle id="v2060" depart="190.42" route="sr656" type="CarDefault" departLane="random" />
	<vehicle id="v131" depart="193.29" route="sr654" type="CarDefault" departLane="random" />
	<vehicle id="v2061" depart="194.01" route="sr656" type="CarDefault" departLane="random" />
	<vehicle id="v866" depart="194.41" route="sr655" type="CarDefault" departLane="random" />
	<vehicle id="v2062" depart="197.6" route="sr656" type="CarDefault" departLane="random" />
	<vehicle id="v132" depart="198.12" route="sr654" type="CarDefault" departLane="random" />
	<vehicle id="v4" depart="201" route="sr654" type="CarDefault" departLane="random" />
	<vehicle id="v867" depart="201.12" route="sr655" type="CarDefault" departLane="random" />
	<vehicle id="v2063" depart="201.2" route="sr656" type="CarDefault" departLane="random" />
	<vehicle id="v133" depart="202.95" route="sr654" type="CarDefault" departLane="random" />
	<vehicle id="v2064" depart="204.79" route="sr656" type="CarDefault" departLane="random" />
	<vehicle id="v134" depart="207.79" route="sr654" type="CarDefault" departLane="random" />
	<vehicle id="v868" depart="207.82" route="sr655" type="CarDefault" departLane="random" />
	<vehicle id="v2065" depart="208.38" route="sr656" type="CarDefault" departLane="random" />
	<vehicle id="v2066" depart="211.98" route="sr656" type="CarDefault" departLane="random" />
	<vehicle id="v135" depart="212.62" route="sr654" type="CarDefault" departLane="random" />
	<vehicle id="v869" depart="214.53" route="sr655" type="CarDefault" departLane="random" />
	<vehicle id="v2067" depart="215.57" route="sr656" type="CarDefault" departLane="random" />
	<vehicle id="v136" depart="217.45" route="sr654" type="CarDefault" departLane="random" />
	<vehicle id="v2068" depart="219.16" route="sr656" type="CarDefault" departLane="random" />
	<vehicle id="v870" depart="221.23" route="sr655" type="CarDefault" departLane="random" />
	<vehicle id="v137" depart="222.28" route="sr654" type="CarDefault" departLane="random" />
	<vehicle id="v2069" depart="222.75" route="sr656" type="CarDefault" departLane="random" />
	<vehicle id="v2070" depart="226.35" route="sr656" type="CarDefault" departLane="random" />
	<vehicle id="v138" depart="227.11" route="sr654" type="CarDefault" departLane="random" />
	<vehicle id="v871" depart="227.93" route="sr655" type="CarDefault" departLane="random" />
	<vehicle id="v2071" depart="229.94" route="sr656" type="CarDefault" departLane="random" />
	<vehicle id="v139" depart="231.95" route="sr654" type="CarDefault" departLane="random" />
	<vehicle id="v2072" depart="233.53" route="sr656" type="CarDefault" departLane="random" />
	<vehicle id="v872" depart="234.64" route="sr655" type="CarDefault" departLane="random" />
	<vehicle id="v140" depart="236.78" route="sr654" type="CarDefault" departLane="random" />
	<vehicle id="v2073" depart="237.13" route="sr656" type="CarDefault" departLane="random" />
	<vehicle id="v2074" depart="240.72" route="sr656" type="CarDefault" departLane="random" />
	<vehicle id="v873" depart="241.34" route="sr655" type="CarDefault" departLane="random" />
	<vehicle id="v141" depart="241.61" route="sr654" type="CarDefault" departLane="random" />
	<vehicle id="v2075" depart="244.31" route="sr656" type="CarDefault" departLane="random" />
	<vehicle id="v142" depart="246.44" route="sr654" type="CarDefault" departLane="random" />
	<vehicle id="v2076" depart="247.9" route="sr656" type="CarDefault" departLane="random" />
	<vehicle id="v874" depart="248.04" route="sr655" type="CarDefault" departLane="random" />
	<vehicle id="v143" depart="251.28" route="sr654" type="CarDefault" departLane="random" />
	<vehicle id="v2077" depart="251.5" route="sr656" type="CarDefault" departLane="random" />
	<vehicle id="v875" depart="254.75" route="sr655" type="CarDefault" departLane="random" />
	<vehicle id="v2078" depart="255.09" route="sr656" type="CarDefault" departLane="random" />
	<vehicle id="v144" depart="256.11" route="sr654" type="CarDefault" departLane="random" />
	<vehicle id="v5" depart="257" route="sr654" type="CarDefault" departLane="random" />
	<vehicle id="v2079" depart="258.68" route="sr656" type="CarDefault" departLane="random" />
	<vehicle id="v145" depart="260.94" route="sr654" type="CarDefault" departLane="random" />
	<vehicle id="v1922" depart="261" route="sr656" type="CarDefault" departLane="random" />
	<vehicle id="v876" depart="261.45" route="sr655" type="CarDefault" departLane="random" />
	<vehicle id="v2080" depart="262.28" route="sr656" type="CarDefault" departLane="random" />
	<vehicle id="v146" depart="265.77" route="sr654" type="CarDefault" departLane="random" />
	<vehicle id="v2081" depart="265.87" route="sr656" type="CarDefault" departLane="random" />
	<vehicle id="v877" depart="268.16" route="sr655" type="CarDefault" departLane="random" />
	<vehicle id="v2082" depart="269.46" route="sr656" type="CarDefault" departLane="random" />
	<vehicle id="v147" depart="270.6" route="sr654" type="CarDefault" departLane="random" />
	<vehicle id="v2083" depart="273.05" route="sr656" type="CarDefault" departLane="random" />
	<vehicle id="v878" depart="274.86" route="sr655" type="CarDefault" departLane="random" />
	<vehicle id="v148" depart="275.44" route="sr654" type="CarDefault" departLane="random" />
	<vehicle id="v6" depart="276" route="sr654" type="CarDefault" departLane="random" />
	<vehicle id="v2084" depart="276.65" route="sr656" type="CarDefault" departLane="random" />
	<vehicle id="v2085" depart="280.24" route="sr656" type="CarDefault" departLane="random" />
	<vehicle id="v149" depart="280.27" route="sr654" type="CarDefault" departLane="random" />
	<vehicle id="v879" depart="281.56" route="sr655" type="CarDefault" departLane="random" />
	<vehicle id="v1923" depart="282" route="sr656" type="CarDefault" departLane="random" />
	<vehicle id="v2086" depart="283.83" route="sr656" type="CarDefault" departLane="random" />
	<vehicle id="v150" depart="285.1" route="sr654" type="CarDefault" departLane="random" />
	<vehicle id="v2087" depart="287.43" route="sr656" type="CarDefault" departLane="random" />
	<vehicle id="v880" depart="288.27" route="sr655" type="CarDefault" departLane="random" />
	<vehicle id="v151" depart="289.93" route="sr654" type="CarDefault" departLane="random" />
	<vehicle id="v2088" depart="291.02" route="sr656" type="CarDefault" departLane="random" />
	<vehicle id="v2089" depart="294.61" route="sr656" type="CarDefault" departLane="random" />
	<vehicle id="v152" depart="294.77" route="sr654" type="CarDefault" departLane="random" />
	<vehicle id="v881" depart="294.97" route="sr655" type="CarDefault" departLane="random" />
	<vehicle id="v2090" depart="298.2" route="sr656" type="CarDefault" departLane="random" />
	<vehicle id="v153" depart="299.6" route="sr654" type="CarDefault" departLane="random" />
	<vehicle id="v882" depart="301.68" route="sr655" type="CarDefault" departLane="random" />
	<vehicle id="v2091" depart="301.8" route="sr656" type="CarDefault" departLane="random" />
	<vehicle id="v154" depart="304.43" route="sr654" type="CarDefault" departLane="random" />
	<vehicle id="v2092" depart="305.39" route="sr656" type="CarDefault" departLane="random" />
	<vehicle id="v883" depart="308.38" route="sr655" type="CarDefault" departLane="random" />
	<vehicle id="v2093" depart="308.98" route="sr656" type="CarDefault" departLane="random" />
	<vehicle id="v155" depart="309.26" route="sr654" type="CarDefault" departLane="random" />
	<vehicle id="v2094" depart="312.57" route="sr656" type="CarDefault" departLane="random" />
	<vehicle id="v7" depart="313" route="sr654" type="CarDefault" departLane="random" />
	<vehicle id="v156" depart="314.09" route="sr654" type="CarDefault" departLane="random" />
	<vehicle id="v884" depart="315.08" route="sr655" type="CarDefault" departLane="random" />
	<vehicle id="v2095" depart="316.17" route="sr656" type="CarDefault" departLane="random" />
	<vehicle id="v157" depart="318.93" route="sr654" type="CarDefault" departLane="random" />
	<vehicle id="v2096" depart="319.76" route="sr656" type="CarDefault" departLane="random" />
	<vehicle id="v885" depart="321.79" route="sr655" type="CarDefault" departLane="random" />
	<vehicle id="v2097" depart="323.35" route="sr656" type="CarDefault" departLane="random" />
	<vehicle id="v158" depart="323.76" route="sr654" type="CarDefault" departLane="random" />
	<vehicle id="v2098" depart="326.95" route="sr656" type="CarDefault" departLane="random" />
	<vehicle id="v886" depart="328.49" route="sr655" type="CarDefault" departLane="random" />
	<vehicle id="v159" depart="328.59" route="sr654" type="CarDefault" departLane="random" />
	<vehicle id="v1924" depart="330" route="sr656" type="CarDefault" departLane="random" />
	<vehicle id="v2099" depart="330.54" route="sr656" type="CarDefault" departLane="random" />
	<vehicle id="v160" depart="333.42" route="sr654" type="CarDefault" departLane="random" />
	<vehicle id="v2100" depart="334.13" route="sr656" type="CarDefault" departLane="random" />
	<vehicle id="v887" depart="335.2" route="sr655" type="CarDefault" departLane="random" />
	<vehicle id="v2101" depart="337.72" route="sr656" type="CarDefault" departLane="random" />
	<vehicle id="v161" depart="338.26" route="sr654" type="CarDefault" departLane="random" />
	<vehicle id="v2102" depart="341.32" route="sr656" type="CarDefault" departLane="random" />
	<vehicle id="v888" depart="341.9" route="sr655" type="CarDefault" departLane="random" />
	<vehicle id="v162" depart="343.09" route="sr654" type="CarDefault" departLane="random" />
	<vehicle id="v2103" depart="344.91" route="sr656" type="CarDefault" departLane="random" />
	<vehicle id="v163" depart="347.92" route="sr654" type="CarDefault" departLane="random" />
	<vehicle id="v2104" depart="348.5" route="sr656" type="CarDefault" departLane="random" />
	<vehicle id="v889" depart="348.6" route="sr655" type="CarDefault" departLane="random" />
	<vehicle id="v2105" depart="352.1" route="sr656" type="CarDefault" departLane="random" />
	<vehicle id="v164" depart="352.75" route="sr654" type="CarDefault" departLane="random" />
	<vehicle id="v890" depart="355.31" route="sr655" type="CarDefault" departLane="random" />
	<vehicle id="v2106" depart="355.69" route="sr656" type="CarDefault" departLane="random" />
	<vehicle id="v165" depart="357.58" route="sr654" type="CarDefault" departLane="random" />
	<vehicle id="v1925" depart="358" route="sr656" type="CarDefault" departLane="random" />
	<vehicle id="v2107" depart="359.28" route="sr656" type="CarDefault" departLane="random" />
	<vehicle id="v891" depart="362.01" route="sr655" type="CarDefault" departLane="random" />
	<vehicle id="v166" depart="362.42" route="sr654" type="CarDefault" departLane="random" />
	<vehicle id="v2108" depart="362.87" route="sr656" type="CarDefault" departLane="random" />
	<vehicle id="v1926" depart="363" route="sr656" type="CarDefault" departLane="random" />
	<vehicle id="v8" depart="365" route="sr654" type="CarDefault" departLane="random" />
	<vehicle id="v2109" depart="366.47" route="sr656" type="CarDefault" departLane="random" />
	<vehicle id="v167" depart="367.25" route="sr654" type="CarDefault" departLane="random" />
	<vehicle id="v892" depart="368.72" route="sr655" type="CarDefault" departLane="random" />
	<vehicle id="v2110" depart="370.06" route="sr656" type="CarDefault" departLane="random" />
	<vehicle id="v168" depart="372.08" route="sr654" type="CarDefault" departLane="random" />
	<vehicle id="v2111" depart="373.65" route="sr656" type="CarDefault" departLane="random" />
	<vehicle id="v893" depart="375.42" route="sr655" type="CarDefault" departLane="random" />
	<vehicle id="v169" depart="376.91" route="sr654" type="CarDefault" departLane="random" />
	<vehicle id="v2112" depart="377.25" route="sr656" type="CarDefault" departLane="random" />
	<vehicle id="v2113" depart="380.84" route="sr656" type="CarDefault" departLane="random" />
	<vehicle id="v170" depart="381.74" route="sr654" type="CarDefault" departLane="random" />
	<vehicle id="v894" depart="382.12" route="sr655" type="CarDefault" departLane="random" />
	<vehicle id="v2114" depart="384.43" route="sr656" type="CarDefault" departLane="random" />
	<vehicle id="v171" depart="386.58" route="sr654" type="CarDefault" departLane="random" />
	<vehicle id="v2115" depart="388.02" route="sr656" type="CarDefault" departLane="random" />
	<vehicle id="v895" depart="388.83" route="sr655" type="CarDefault" departLane="random" />
	<vehicle id="v172" depart="391.41" route="sr654" type="CarDefault" departLane="random" />
	<vehicle id="v2116" depart="391.62" route="sr656" type="CarDefault" departLane="random" />
	<vehicle id="v2117" depart="395.21" route="sr656" type="CarDefault" departLane="random" />
	<vehicle id="v896" depart="395.53" route="sr655" type="CarDefault" departLane="random" />
	<vehicle id="v173" depart="396.24" route="sr654" type="CarDefault" departLane="random" />
	<vehicle id="v2118" depart="398.8" route="sr656" type="CarDefault" departLane="random" />
	<vehicle id="v174" depart="401.07" route="sr654" type="CarDefault" departLane="random" />
	<vehicle id="v897" depart="402.23" route="sr655" type="CarDefault" departLane="random" />
	<vehicle id="v2119" depart="402.4" route="sr656" type="CarDefault" departLane="random" />
	<vehicle id="v9" depart="405" route="sr654" type="CarDefault" departLane="random" />
	<vehicle id="v175" depart="405.91" route="sr654" type="CarDefault" departLane="random" />
	<vehicle id="v2120" depart="405.99" route="sr656" type="CarDefault" departLane="random" />
	<vehicle id="v898" depart="408.94" route="sr655" type="CarDefault" departLane="random" />
	<vehicle id="v2121" depart="409.58" route="sr656" type="CarDefault" departLane="random" />
	<vehicle id="v176" depart="410.74" route="sr654" type="CarDefault" departLane="random" />
	<vehicle id="v2122" depart="413.17" route="sr656" type="CarDefault" departLane="random" />
	<vehicle id="v177" depart="415.57" route="sr654" type="CarDefault" departLane="random" />
	<vehicle id="v899" depart="415.64" route="sr655" type="CarDefault" departLane="random" />
	<vehicle id="v2123" depart="416.77" route="sr656" type="CarDefault" departLane="random" />
	<vehicle id="v2124" depart="420.36" route="sr656" type="CarDefault" departLane="random" />
	<vehicle id="v178" depart="420.4" route="sr654" type="CarDefault" departLane="random" />
	<vehicle id="v900" depart="422.35" route="sr655" type="CarDefault" departLane="random" />
	<vehicle id="v2125" depart="423.95" route="sr656" type="CarDefault" departLane="random" />
	<vehicle id="v179" depart="425.23" route="sr654" type="CarDefault" departLane="random" />
	<vehicle id="v10" depart="427" route="sr654" type="CarDefault" departLane="random" />
	<vehicle id="v2126" depart="427.54" route="sr656" type="CarDefault" departLane="random" />
	<vehicle id="v1927" depart="429" route="sr656" type="CarDefault" departLane="random" />
	<vehicle id="v901" depart="429.05" route="sr655" type="CarDefault" departLane="random" />
	<vehicle id="v180" depart="430.07" route="sr654" type="CarDefault" departLane="random" />
	<vehicle id="v2127" depart="431.14" route="sr656" type="CarDefault" departLane="random" />
	<vehicle id="v2128" depart="434.73" route="sr656" type="CarDefault" departLane="random" />
	<vehicle id="v181" depart="434.9" route="sr654" type="CarDefault" departLane="random" />
	<vehicle id="v902" depart="435.75" route="sr655" type="CarDefault" departLane="random" />
	<vehicle id="v2129" depart="438.32" route="sr656" type="CarDefault" departLane="random" />
	<vehicle id="v182" depart="439.73" route="sr654" type="CarDefault" departLane="random" />
	<vehicle id="v2130" depart="441.92" route="sr656" type="CarDefault" departLane="random" />
	<vehicle id="v903" depart="442.46" route="sr655" type="CarDefault" departLane="random" />
	<vehicle id="v183" depart="444.56" route="sr654" type="CarDefault" departLane="random" />
	<vehicle id="v2131" depart="445.51" route="sr656" type="CarDefault" departLane="random" />
	<vehicle id="v2132" depart="449.1" route="sr656" type="CarDefault" departLane="random" />
	<vehicle id="v904" depart="449.16" route="sr655" type="CarDefault" departLane="random" />
	<vehicle id="v184" depart="449.4" route="sr654" type="CarDefault" departLane="random" />
	<vehicle id="v2133" depart="452.69" route="sr656" type="CarDefault" departLane="random" />
	<vehicle id="v185" depart="454.23" route="sr654" type="CarDefault" departLane="random" />
	<vehicle id="v11" depart="455" route="sr654" type="CarDefault" departLane="random" />
	<vehicle id="v905" depart="455.87" route="sr655" type="CarDefault" departLane="random" />
	<vehicle id="v2134" depart="456.29" route="sr656" type="CarDefault" departLane="random" />
	<vehicle id="v186" depart="459.06" route="sr654" type="CarDefault" departLane="random" />
	<vehicle id="v2135" depart="459.88" route="sr656" type="CarDefault" departLane="random" />
	<vehicle id="v906" depart="462.57" route="sr655" type="CarDefault" departLane="random" />
	<vehicle id="v2136" depart="463.47" route="sr656" type="CarDefault" departLane="random" />
	<vehicle id="v187" depart="463.89" route="sr654" type="CarDefault" departLane="random" />
	<vehicle id="v2137" depart="467.07" route="sr656" type="CarDefault" departLane="random" />
	<vehicle id="v188" depart="468.72" route="sr654" type="CarDefault" departLane="random" />