<?xml version='1.0' encoding='utf-8'?>
<routes>
	<vType accel="3.0" decel="6.0" id="CarDefault" length="5.0" minGap="2.5" maxSpeed="50.0" sigma="0.5" />
	<route id="sr5674" edges="279 280 281 282 283 284 285 394 395 396 28 27 26 25 50" fromJunction="42" toJunction="11" />
	<route id="sr5676" edges="62 129 61 6 5 161 162 361 163 164 38 134 116 115 114 113 112 74 73 72 71 70 69 68" fromJunction="154" toJunction="42" />
	<route id="sr5675" edges="226 227 228 116 359 300 301 124 30 29 397 398 399 400 401 237 0" fromJunction="127" toJunction="117" />
	<route id="r9729" edges="279 280 281 282 283 284 285 322 393 427 425 426 25 50" fromJunction="42" toJunction="11" />
	<route id="r9730" edges="62 129 360 453 416 422 419 415 348 6 5 161 162 361 163 164 38 134 116 115 114 113 112 74 73 72 71 70 69 68" fromJunction="154" toJunction="42" />
	<route id="r9731" edges="226 227 228 454 206 185 186 103 386 93 156 278 41 40 237 0" fromJunction="127" toJunction="117" />
	<vehicle id="v2997" depart="0.0" route="r9729" type="CarDefault" departLane="random" />
	<vehicle id="v3758" depart="0.0" route="r9731" type="CarDefault" departLane="random" />
	<vehicle id="v4556" depart="0.0" route="r9730" type="CarDefault" departLane="random" />
	<vehicle id="v4460" depart="1" route="r9730" type="CarDefault" departLane="random" />
	<vehicle id="v4557" depart="3.49" route="r9730" type="CarDefault" departLane="random" />
	<vehicle id="v3759" depart="5.14" route="r9731" type="CarDefault" departLane="random" />
	<vehicle id="v2998" depart="5.4" route="r9729" type="CarDefault" departLane="random" />
	<vehicle id="v4558" depart="6.98" route="r9730" type="CarDefault" departLane="random" />
	<vehicle id="v3760" depart="10.27" route="r9731" type="CarDefault" departLane="random" />
	<vehicle id="v4559" depart="10.48" route="r9730" type="CarDefault" departLane="random" />
	<vehicle id="v2999" depart="10.79" route="r9729" type="CarDefault" departLane="random" />
	<vehicle id="v4560" depart="13.97" route="r9730" type="CarDefault" departLane="random" />
	<vehicle id="v3761" depart="15.41" route="r9731" type="CarDefault" departLane="random" />
	<vehicle id="v3000" depart="16.19" route="r9729" type="CarDefault" departLane="random" />
	<vehicle id="v4561" depart="17.46" route="r9730" type="CarDefault" departLane="random" />
	<vehicle id="v3762" depart="20.54" route="r9731" type="CarDefault" departLane="random" />
	<vehicle id="v4562" depart="20.95" route="r9730" type="CarDefault" departLane="random" />
	<vehicle id="v3001" depart="21.59" route="r9729" type="CarDefault" departLane="random" />
	<vehicle id="v4563" depart="24.44" route="r9730" type="CarDefault" departLane="random" />
	<vehicle id="v3665" depart="25" route="r9731" type="CarDefault" departLane="random" />
	<vehicle id="v3763" depart="25.68" route="r9731" type="CarDefault" departLane="random" />
	<vehicle id="v3002" depart="26.99" route="r9729" type="CarDefault" departLane="random" />
	<vehicle id="v4564" depart="27.93" route="r9730" type="CarDefault" departLane="random" />
	<vehicle id="v4461" depart="29" route="r9730" type="CarDefault" departLane="random" />
	<vehicle id="v3764" depart="30.81" route="r9731" type="CarDefault" departLane="random" />
	<vehicle id="v2894" depart="31" route="r9729" type="CarDefault" departLane="random" />
	<vehicle id="v4565" depart="31.43" route="r9730" type="CarDefault" departLane="random" />
	<vehicle id="v3003" depart="32.38" route="r9729" type="CarDefault" departLane="random" />
	<vehicle id="v4566" depart="34.92" route="r9730" type="CarDefault" departLane="random" />
	<vehicle id="v3765" depart="35.95" route="r9731" type="CarDefault" departLane="random" />
	<vehicle id="v3004" depart="37.78" route="r9729" type="CarDefault" departLane="random" />
	<vehicle id="v4567" depart="38.41" route="r9730" type="CarDefault" departLane="random" />
	<vehicle id="v3766" depart="41.08" route="r9731" type="CarDefault" departLane="random" />
	<vehicle id="v4568" depart="41.9" route="r9730" type="CarDefault" departLane="random" />
	<vehicle id="v3666" depart="43" route="r9731" type="CarDefault" departLane="random" />
	<vehicle id="v3005" depart="43.18" route="r9729" type="CarDefault" departLane="random" />
	<vehicle id="v4462" depart="44" route="r9730" type="CarDefault" departLane="random" />
	<vehicle id="v4569" depart="45.39" route="r9730" type="CarDefault" departLane="random" />
	<vehicle id="v3767" depart="46.22" route="r9731" type="CarDefault" departLane="random" />
	<vehicle id="v3006" depart="48.58" route="r9729" type="CarDefault" departLane="random" />
	<vehicle id="v4570" depart="48.88" route="r9730" type="CarDefault" departLane="random" />
	<vehicle id="v2895" depart="51" route="r9729" type="CarDefault" departLane="random" />
	<vehicle id="v3768" depart="51.36" route="r9731" type="CarDefault" departLane="random" />
	<vehicle id="v4571" depart="52.38" route="r9730" type="CarDefault" departLane="random" />
	<vehicle id="v3007" depart="53.97" route="r9729" type="CarDefault" departLane="random" />
	<vehicle id="v4572" depart="55.87" route="r9730" type="CarDefault" departLane="random" />
	<vehicle id="v3769" depart="56.49" route="r9731" type="CarDefault" departLane="random" />
	<vehicle id="v4573" depart="59.36" route="r9730" type="CarDefault" departLane="random" />
	<vehicle id="v3008" depart="59.37" route="r9729" type="CarDefault" departLane="random" />
	<vehicle id="v3770" depart="61.63" route="r9731" type="CarDefault" departLane="random" />
	<vehicle id="v4574" depart="62.85" route="r9730" type="CarDefault" departLane="random" />
	<vehicle id="v3009" depart="64.77" route="r9729" type="CarDefault" departLane="random" />
	<vehicle id="v4575" depart="66.34" route="r9730" type="CarDefault" departLane="random" />
	<vehicle id="v3771" depart="66.76" route="r9731" type="CarDefault" departLane="random" />
	<vehicle id="v4576" depart="69.84" route="r9730" type="CarDefault" departLane="random" />
	<vehicle id="v3010" depart="70.16" route="r9729" type="CarDefault" departLane="random" />
	<vehicle id="v3772" depart="71.9" route="r9731" type="CarDefault" departLane="random" />
	<vehicle id="v4577" depart="73.33" route="r9730" type="CarDefault" departLane="random" />
	<vehicle id="v3011" depart="75.56" route="r9729" type="CarDefault" departLane="random" />
	<vehicle id="v4578" depart="76.82" route="r9730" type="CarDefault" departLane="random" />
	<vehicle id="v3773" depart="77.03" route="r9731" type="CarDefault" departLane="random" />
	<vehicle id="v3667" depart="79" route="r9731" type="CarDefault" departLane="random" />
	<vehicle id="v4579" depart="80.31" route="r9730" type="CarDefault" departLane="random" />
	<vehicle id="v3012" depart="80.96" route="r9729" type="CarDefault" departLane="random" />
	<vehicle id="v3774" depart="82.17" route="r9731" type="CarDefault" departLane="random" />
	<vehicle id="v4580" depart="83.8" route="r9730" type="CarDefault" departLane="random" />
	<vehicle id="v3013" depart="86.36" route="r9729" type="CarDefault" departLane="random" />
	<vehicle id="v4581" depart="87.29" route="r9730" type="CarDefault" departLane="random" />
	<vehicle id="v3775" depart="87.3" route="r9731" type="CarDefault" departLane="random" />
	<vehicle id="v4582" depart="90.79" route="r9730" type="CarDefault" departLane="random" />
	<vehicle id="v3014" depart="91.75" route="r9729" type="CarDefault" departLane="random" />
	<vehicle id="v3776" depart="92.44" route="r9731" type="CarDefault" departLane="random" />
	<vehicle id="v3668" depart="93" route="r9731" type="CarDefault" departLane="random" />
	<vehicle id="v4583" depart="94.28" route="r9730" type="CarDefault" departLane="random" />
	<vehicle id="v3015" depart="97.15" route="r9729" type="CarDefault" departLane="random" />
	<vehicle id="v3777" depart="97.57" route="r9731" type="CarDefault" departLane="random" />
	<vehicle id="v4584" depart="97.77" route="r9730" type="CarDefault" departLane="random" />
	<vehicle id="v4463" depart="98" route="r9730" type="CarDefault" departLane="random" />
	<vehicle id="v4585" depart="101.26" route="r9730" type="CarDefault" departLane="random" />
	<vehicle id="v3016" depart="102.55" route="r9729" type="CarDefault" departLane="random" />
	<vehicle id="v3778" depart="102.71" route="r9731" type="CarDefault" departLane="random" />
	<vehicle id="v4586" depart="104.75" route="r9730" type="CarDefault" departLane="random" />
	<vehicle id="v3779" depart="107.85" route="r9731" type="CarDefault" departLane="random" />
	<vehicle id="v3017" depart="107.95" route="r9729" type="CarDefault" departLane="random" />
	<vehicle id="v4587" depart="108.24" route="r9730" type="CarDefault" departLane="random" />
	<vehicle id="v4588" depart="111.74" route="r9730" type="CarDefault" departLane="random" />
	<vehicle id="v3780" depart="112.98" route="r9731" type="CarDefault" departLane="random" />
	<vehicle id="v3018" depart="113.34" route="r9729" type="CarDefault" departLane="random" />
	<vehicle id="v3669" depart="114" route="r9731" type="CarDefault" departLane="random" />
	<vehicle id="v4589" depart="115.23" route="r9730" type="CarDefault" departLane="random" />
	<vehicle id="v3781" depart="118.12" route="r9731" type="CarDefault" departLane="random" />
	<vehicle id="v4590" depart="118.72" route="r9730" type="CarDefault" departLane="random" />
	<vehicle id="v3019" depart="118.74" route="r9729" type="CarDefault" departLane="random" />
	<vehicle id="v4464" depart="119" route="r9730" type="CarDefault" departLane="random" />
	<vehicle id="v4591" depart="122.21" route="r9730" type="CarDefault" departLane="random" />
	<vehicle id="v3782" depart="123.25" route="r9731" type="CarDefault" departLane="random" />
	<vehicle id="v3020" depart="124.14" route="r9729" type="CarDefault" departLane="random" />
	<vehicle id="v4592" depart="125.7" route="r9730" type="CarDefault" departLane="random" />
	<vehicle id="v3783" depart="128.39" route="r9731" type="CarDefault" departLane="random" />
	<vehicle id="v4593" depart="129.19" route="r9730" type="CarDefault" departLane="random" />
	<vehicle id="v3021" depart="129.54" route="r9729" type="CarDefault" departLane="random" />
	<vehicle id="v3670" depart="130" route="r9731" type="CarDefault" departLane="random" />
	<vehicle id="v4594" depart="132.69" route="r9730" type="CarDefault" departLane="random" />
	<vehicle id="v3784" depart="133.52" route="r9731" type="CarDefault" departLane="random" />
	<vehicle id="v3022" depart="134.93" route="r9729" type="CarDefault" departLane="random" />
	<vehicle id="v4595" depart="136.18" route="r9730" type="CarDefault" departLane="random" />
	<vehicle id="v4465" depart="138" route="r9730" type="CarDefault" departLane="random" />
	<vehicle id="v3785" depart="138.66" route="r9731" type="CarDefault" departLane="random" />
	<vehicle id="v4596" depart="139.67" route="r9730" type="CarDefault" departLane="random" />
	<vehicle id="v3023" depart="140.33" route="r9729" type="CarDefault" departLane="random" />
	<vehicle id="v2896" depart="142" route="r9729" type="CarDefault" departLane="random" />
	<vehicle id="v3671" depart="142" route="r9731" type="CarDefault" departLane="random" />
	<vehicle id="v4597" depart="143.16" route="r9730" type="CarDefault" departLane="random" />
	<vehicle id="v3786" depart="143.79" route="r9731" type="CarDefault" departLane="random" />
	<vehicle id="v3024" depart="145.73" route="r9729" type="CarDefault" departLane="random" />
	<vehicle id="v4598" depart="146.65" route="r9730" type="CarDefault" departLane="random" />
	<vehicle id="v3787" depart="148.93" route="r9731" type="CarDefault" departLane="random" />
	<vehicle id="v4599" depart="150.15" route="r9730" type="CarDefault" departLane="random" />
	<vehicle id="v3025" depart="151.12" route="r9729" type="CarDefault" departLane="random" />
	<vehicle id="v4600" depart="153.64" route="r9730" type="CarDefault" departLane="random" />
	<vehicle id="v3788" depart="154.07" route="r9731" type="CarDefault" departLane="random" />
	<vehicle id="v3026" depart="156.52" route="r9729" type="CarDefault" departLane="random" />
	<vehicle id="v4601" depart="157.13" route="r9730" type="CarDefault" departLane="random" />
	<vehicle id="v3789" depart="159.2" route="r9731" type="CarDefault" departLane="random" />
	<vehicle id="v4602" depart="160.62" route="r9730" type="CarDefault" departLane="random" />
	<vehicle id="v3027" depart="161.92" route="r9729" type="CarDefault" departLane="random" />
	<vehicle id="v4603" depart="164.11" route="r9730" type="CarDefault" departLane="random" />
	<vehicle id="v3790" depart="164.34" route="r9731" type="CarDefault" departLane="random" />
	<vehicle id="v2897" depart="166" route="r9729" type="CarDefault" departLane="random" />
	<vehicle id="v3028" depart="167.32" route="r9729" type="CarDefault" departLane="random" />
	<vehicle id="v4604" depart="167.6" route="r9730" type="CarDefault" departLane="random" />
	<vehicle id="v3791" depart="169.47" route="r9731" type="CarDefault" departLane="random" />
	<vehicle id="v4605" depart="171.1" route="r9730" type="CarDefault" departLane="random" />
	<vehicle id="v3029" depart="172.71" route="r9729" type="CarDefault" departLane="random" />
	<vehicle id="v4606" depart="174.59" route="r9730" type="CarDefault" departLane="random" />
	<vehicle id="v3792" depart="174.61" route="r9731" type="CarDefault" departLane="random" />
	<vehicle id="v4607" depart="178.08" route="r9730" type="CarDefault" departLane="random" />
	<vehicle id="v3030" depart="178.11" route="r9729" type="CarDefault" departLane="random" />
	<vehicle id="v3793" depart="179.74" route="r9731" type="CarDefault" departLane="random" />
	<vehicle id="v4608" depart="181.57" route="r9730" type="CarDefault" departLane="random" />
	<vehicle id="v3031" depart="183.51" route="r9729" type="CarDefault" departLane="random" />
	<vehicle id="v3794" depart="184.88" route="r9731" type="CarDefault" departLane="random" />
	<vehicle id="v4466" depart="185" route="r9730" type="CarDefault" departLane="random" />
	<vehicle id="v4609" depart="185.06" route="r9730" type="CarDefault" departLane="random" />
	<vehicle id="v4610" depart="188.55" route="r9730" type="CarDefault" departLane="random" />
	<vehicle id="v3032" depart="188.91" route="r9729" type="CarDefault" departLane="random" />
	<vehicle id="v3795" depart="190.01" route="r9731" type="CarDefault" departLane="random" />
	<vehicle id="v4611" depart="192.05" route="r9730" type="CarDefault" departLane="random" />
	<vehicle id="v3033" depart="194.3" route="r9729" type="CarDefault" departLane="random" />
	<vehicle id="v3796" depart="195.15" route="r9731" type="CarDefault" departLane="random" />
	<vehicle id="v4612" depart="195.54" route="r9730" type="CarDefault" departLane="random" />
	<vehicle id="v2898" depart="199" route="r9729" type="CarDefault" departLane="random" />
	<vehicle id="v4613" depart="199.03" route="r9730" type="CarDefault" departLane="random" />
	<vehicle id="v3034" depart="199.7" route="r9729" type="CarDefault" departLane="random" />
	<vehicle id="v3797" depart="200.29" route="r9731" type="CarDefault" departLane="random" />
	<vehicle id="v4614" depart="202.52" route="r9730" type="CarDefault" departLane="random" />
	<vehicle id="v3035" depart="205.1" route="r9729" type="CarDefault" departLane="random" />
	<vehicle id="v3798" depart="205.42" route="r9731" type="CarDefault" departLane="random" />
	<vehicle id="v4615" depart="206.01" route="r9730" type="CarDefault" departLane="random" />
	<vehicle id="v4616" depart="209.51" route="r9730" type="CarDefault" departLane="random" />
	<vehicle id="v3036" depart="210.49" route="r9729" type="CarDefault" departLane="random" />
	<vehicle id="v3799" depart="210.56" route="r9731" type="CarDefault" departLane="random" />
	<vehicle id="v4617" depart="213.0" route="r9730" type="CarDefault" departLane="random" />
	<vehicle id="v3800" depart="215.69" route="r9731" type="CarDefault" departLane="random" />
	<vehicle id="v3037" depart="215.89" route="r9729" type="CarDefault" departLane="random" />
	<vehicle id="v4618" depart="216.49" route="r9730" type="CarDefault" departLane="random" />
	<vehicle id="v4467" depart="218" route="r9730" type="CarDefault" departLane="random" />
	<vehicle id="v4619" depart="219.98" route="r9730" type="CarDefault" departLane="random" />
	<vehicle id="v3801" depart="220.83" route="r9731" type="CarDefault" departLane="random" />
	<vehicle id="v3038" depart="221.29" route="r9729" type="CarDefault" departLane="random" />
	<vehicle id="v4620" depart="223.47" route="r9730" type="CarDefault" departLane="random" />
	<vehicle id="v3672" depart="224" route="r9731" type="CarDefault" departLane="random" />
	<vehicle id="v3802" depart="225.96" route="r9731" type="CarDefault" departLane="random" />
	<vehicle id="v3039" depart="226.69" route="r9729" type="CarDefault" departLane="random" />
	<vehicle id="v4621" depart="226.96" route="r9730" type="CarDefault" departLane="random" />
	<vehicle id="v4622" depart="230.46" route="r9730" type="CarDefault" departLane="random" />
	<vehicle id="v3803" depart="231.1" route="r9731" type="CarDefault" departLane="random" />
	<vehicle id="v3040" depart="232.08" route="r9729" type="CarDefault" departLane="random" />
	<vehicle id="v4623" depart="233.95" route="r9730" type="CarDefault" departLane="random" />
	<vehicle id="v3804" depart="236.23" route="r9731" type="CarDefault" departLane="random" />
	<vehicle id="v4624" depart="237.44" route="r9730" type="CarDefault" departLane="random" />
	<vehicle id="v3041" depart="237.48" route="r9729" type="CarDefault" departLane="random" />
	<vehicle id="v4625" depart="240.93" route="r9730" type="CarDefault" departLane="random" />
	<vehicle id="v3805" depart="241.37" route="r9731" type="CarDefault" departLane="random" />
	<vehicle id="v3042" depart="242.88" route="r9729" type="CarDefault" departLane="random" />
	<vehicle id="v4626" depart="244.42" route="r9730" type="CarDefault" departLane="random" />
	<vehicle id="v3806" depart="246.5" route="r9731" type="CarDefault" departLane="random" />
	<vehicle id="v4627" depart="247.91" route="r9730" type="CarDefault" departLane="random" />
	<vehicle id="v3043" depart="248.28" route="r9729" type="CarDefault" departLane="random" />
	<vehicle id="v4628" depart="251.41" route="r9730" type="CarDefault" departLane="random" />
	<vehicle id="v3807" depart="251.64" route="r9731" type="CarDefault" departLane="random" />
	<vehicle id="v3044" depart="253.67" route="r9729" type="CarDefault" departLane="random" />
	<vehicle id="v4629" depart="254.9" route="r9730" type="CarDefault" departLane="random" />
	<vehicle id="v3808" depart="256.78" route="r9731" type="CarDefault" departLane="random" />
	<vehicle id="v4630" depart="258.39" route="r9730" type="CarDefault" departLane="random" />
	<vehicle id="v2899" depart="259" route="r9729" type="CarDefault" departLane="random" />
	<vehicle id="v3045" depart="259.07" route="r9729" type="CarDefault" departLane="random" />
	<vehicle id="v4631" depart="261.88" route="r9730" type="CarDefault" departLane="random" />
	<vehicle id="v3809" depart="261.91" route="r9731" type="CarDefault" departLane="random" />
	<vehicle id="v3046" depart="264.47" route="r9729" type="CarDefault" departLane="random" />
	<vehicle id="v4632" depart="265.37" route="r9730" type="CarDefault" departLane="random" />
	<vehicle id="v3810" depart="267.05" route="r9731" type="CarDefault" departLane="random" />
	<vehicle id="v4633" depart="268.87" route="r9730" type="CarDefault" departLane="random" />
	<vehicle id="v3047" depart="269.87" route="r9729" type="CarDefault" departLane="random" />
	<vehicle id="v3811" depart="272.18" route="r9731" type="CarDefault" departLane="random" />
	<vehicle id="v4634" depart="272.36" route="r9730" type="CarDefault" departLane="random" />
	<vehicle id="v3048" depart="275.26" route="r9729" type="CarDefault" departLane="random" />
	<vehicle id="v4635" depart="275.85" route="r9730" type="CarDefault" departLane="random" />
	<vehicle id="v3812" depart="277.32" route="r9731" type="CarDefault" departLane="random" />
	<vehicle id="v2900" depart="279" route="r9729" type="CarDefault" departLane="random" />
	<vehicle id="v4636" depart="279.34" route="r9730" type="CarDefault" departLane="random" />
	<vehicle id="v3049" depart="280.66" route="r9729" type="CarDefault" departLane="random" />
	<vehicle id="v3813" depart="282.45" route="r9731" type="CarDefault" departLane="random" />
	<vehicle id="v4637" depart="282.83" route="r9730" type="CarDefault" departLane="random" />
	<vehicle id="v3050" depart="286.06" route="r9729" type="CarDefault" departLane="random" />
	<vehicle id="v4638" depart="286.32" route="r9730" type="CarDefault" departLane="random" />
	<vehicle id="v3814" depart="287.59" route="r9731" type="CarDefault" departLane="random" />
	<vehicle id="v4639" depart="289.82" route="r9730" type="CarDefault" departLane="random" />
	<vehicle id="v3051" depart="291.45" route="r9729" type="CarDefault" departLane="random" />
	<vehicle id="v3815" depart="292.72" route="r9731" type="CarDefault" departLane="random" />
	<vehicle id="v2901" depart="293" route="r9729" type="CarDefault" departLane="random" />
	<vehicle id="v4640" depart="293.31" route="r9730" type="CarDefault" departLane="random" />
	<vehicle id="v3673" depart="296" route="r9731" type="CarDefault" departLane="random" />
	<vehicle id="v4641" depart="296.8" route="r9730" type="CarDefault" departLane="random" />
	<vehicle id="v3052" depart="296.85" route="r9729" type="CarDefault" departLane="random" />
	<vehicle id="v3816" depart="297.86" route="r9731" type="CarDefault" departLane="random" />
	<vehicle id="v4642" depart="300.29" route="r9730" type="CarDefault" departLane="random" />
	<vehicle id="v4468" depart="301" route="r9730" type="CarDefault" departLane="random" />
	<vehicle id="v3053" depart="302.25" route="r9729" type="CarDefault" departLane="random" />
	<vehicle id="v3817" depart="303.0" route="r9731" type="CarDefault" departLane="random" />
	<vehicle id="v4643" depart="303.78" route="r9730" type="CarDefault" departLane="random" />
	<vehicle id="v4644" depart="307.27" route="r9730" type="CarDefault" departLane="random" />
	<vehicle id="v3054" depart="307.65" route="r9729" type="CarDefault" departLane="random" />
	<vehicle id="v3818" depart="308.13" route="r9731" type="CarDefault" departLane="random" />
	<vehicle id="v2902" depart="309" route="r9729" type="CarDefault" departLane="random" />
	<vehicle id="v4645" depart="310.77" route="r9730" type="CarDefault" departLane="random" />
	<vehicle id="v3055" depart="313.04" route="r9729" type="CarDefault" departLane="random" />
	<vehicle id="v3819" depart="313.27" route="r9731" type="CarDefault" departLane="random" />
	<vehicle id="v4646" depart="314.26" route="r9730" type="CarDefault" departLane="random" />
	<vehicle id="v4647" depart="317.75" route="r9730" type="CarDefault" departLane="random" />
	<vehicle id="v3820" depart="318.4" route="r9731" type="CarDefault" departLane="random" />
	<vehicle id="v3056" depart="318.44" route="r9729" type="CarDefault" departLane="random" />
	<vehicle id="v4648" depart="321.24" route="r9730" type="CarDefault" departLane="random" />
	<vehicle id="v3821" depart="323.54" route="r9731" type="CarDefault" departLane="random" />
	<vehicle id="v3057" depart="323.84" route="r9729" type="CarDefault" departLane="random" />
	<vehicle id="v4649" depart="324.73" route="r9730" type="CarDefault" departLane="random" />
	<vehicle id="v4650" depart="328.23" route="r9730" type="CarDefault" departLane="random" />
	<vehicle id="v3822" depart="328.67" route="r9731" type="CarDefault" departLane="random" />
	<vehicle id="v3058" depart="329.24" route="r9729" type="CarDefault" departLane="random" />
	<vehicle id="v4651" depart="331.72" route="r9730" type="CarDefault" departLane="random" />
	<vehicle id="v3823" depart="333.81" route="r9731" type="CarDefault" departLane="random" />
	<vehicle id="v3059" depart="334.63" route="r9729" type="CarDefault" departLane="random" />
	<vehicle id="v4469" depart="335" route="r9730" type="CarDefault" departLane="random" />
	<vehicle id="v4652" depart="335.21" route="r9730" type="CarDefault" departLane="random" />
	<vehicle id="v4653" depart="338.7" route="r9730" type="CarDefault" departLane="random" />
	<vehicle id="v3824" depart="338.94" route="r9731" type="CarDefault" departLane="random" />
	<vehicle id="v3060" depart="340.03" route="r9729" type="CarDefault" departLane="random" />
	<vehicle id="v4654" depart="342.19" route="r9730" type="CarDefault" departLane="random" />
	<vehicle id="v3825" depart="344.08" route="r9731" type="CarDefault" departLane="random" />
	<vehicle id="v2903" depart="345" route="r9729" type="CarDefault" departLane="random" />
	<vehicle id="v3061" depart="345.43" route="r9729" type="CarDefault" departLane="random" />
	<vehicle id="v4655" depart="345.68" route="r9730" type="CarDefault" departLane="random" />
	<vehicle id="v4656" depart="349.18" route="r9730" type="CarDefault" departLane="random" />
	<vehicle id="v3826" depart="349.22" route="r9731" type="CarDefault" departLane="random" />
	<vehicle id="v3062" depart="350.82" route="r9729" type="CarDefault" departLane="random" />
	<vehicle id="v4657" depart="352.67" route="r9730" type="CarDefault" departLane="random" />
	<vehicle id="v3674" depart="353" route="r9731" type="CarDefault" departLane="random" />
	<vehicle id="v3827" depart="354.35" route="r9731" type="CarDefault" departLane="random" />
	<vehicle id="v4658" depart="356.16" route="r9730" type="CarDefault" departLane="random" />
	<vehicle id="v3063" depart="356.22" route="r9729" type="CarDefault" departLane="random" />
	<vehicle id="v3828" depart="359.49" route="r9731" type="CarDefault" departLane="random" />
	<vehicle id="v4659" depart="359.65" route="r9730" type="CarDefault" departLane="random" />
	<vehicle id="v3064" depart="361.62" route="r9729" type="CarDefault" departLane="random" />
	<vehicle id="v2904" depart="362" route="r9729" type="CarDefault" departLane="random" />
	<vehicle id="v4660" depart="363.14" route="r9730" type="CarDefault" departLane="random" />
	<vehicle id="v3829" depart="364.62" route="r9731" type="CarDefault" departLane="random" />
	<vehicle id="v4661" depart="366.63" route="r9730" type="CarDefault" departLane="random" />
	<vehicle id="v3065" depart="367.02" route="r9729" type="CarDefault" departLane="random" />
	<vehicle id="v3830" depart="369.76" route="r9731" type="CarDefault" departLane="random" />
	<vehicle id="v4662" depart="370.13" route="r9730" type="CarDefault" departLane="random" />
	<vehicle id="v3066" depart="372.41" route="r9729" type="CarDefault" departLane="random" />
	<vehicle id="v4663" depart="373.62" route="r9730" type="CarDefault" departLane="random" />
	<vehicle id="v3831" depart="374.89" route="r9731" type="CarDefault" departLane="random" />
	<vehicle id="v4664" depart="377.11" route="r9730" type="CarDefault" departLane="random" />
	<vehicle id="v3067" depart="377.81" route="r9729" type="CarDefault" departLane="random" />
	<vehicle id="v3832" depart="380.03" route="r9731" type="CarDefault" departLane="random" />
	<vehicle id="v4665" depart="380.6" route="r9730" type="CarDefault" departLane="random" />
	<vehicle id="v3068" depart="383.21" route="r9729" type="CarDefault" departLane="random" />
	<vehicle id="v4666" depart="384.09" route="r9730" type="CarDefault" departLane="random" />
	<vehicle id="v3833" depart="385.16" route="r9731" type="CarDefault" departLane="random" />
	<vehicle id="v4667" depart="387.58" route="r9730" type="CarDefault" departLane="random" />
	<vehicle id="v2905" depart="388" route="r9729" type="CarDefault" departLane="random" />
	<vehicle id="v3069" depart="388.61" route="r9729" type="CarDefault" departLane="random" />
	<vehicle id="v3834" depart="390.3" route="r9731" type="CarDefault" departLane="random" />
	<vehicle id="v4668" depart="391.08" route="r9730" type="CarDefault" departLane="random" />
	<vehicle id="v3070" depart="394.0" route="r9729" type="CarDefault" departLane="random" />
	<vehicle id="v4669" depart="394.57" route="r9730" type="CarDefault" departLane="random" />
	<vehicle id="v3835" depart="395.44" route="r9731" type="CarDefault" departLane="random" />
	<vehicle id="v4670" depart="398.06" route="r9730" type="CarDefault" departLane="random" />
	<vehicle id="v3071" depart="399.4" route="r9729" type="CarDefault" departLane="random" />
	<vehicle id="v3836" depart="400.57" route="r9731" type="CarDefault" departLane="random" />
	<vehicle id="v4671" depart="401.55" route="r9730" type="CarDefault" departLane="random" />
	<vehicle id="v3072" depart="404.8" route="r9729" type="CarDefault" departLane="random" />
	<vehicle id="v4672" depart="405.04" route="r9730" type="CarDefault" departLane="random" />
	<vehicle id="v3837" depart="405.71" route="r9731" type="CarDefault" departLane="random" />
	<vehicle id="v4673" depart="408.54" route="r9730" type="CarDefault" departLane="random" />
	<vehicle id="v3073" depart="410.19" route="r9729" type="CarDefault" departLane="random" />
	<vehicle id="v3838" depart="410.84" route="r9731" type="CarDefault" departLane="random" />
	<vehicle id="v4470" depart="411" route="r9730" type="CarDefault" departLane="random" />
	<vehicle id="v4674" depart="412.03" route="r9730" type="CarDefault" departLane="random" />
	<vehicle id="v4675" depart="415.52" route="r9730" type="CarDefault" departLane="random" />
	<vehicle id="v3074" depart="415.59" route="r9729" type="CarDefault" departLane="random" />
	<vehicle id="v3839" depart="415.98" route="r9731" type="CarDefault" departLane="random" />
	<vehicle id="v4676" depart="419.01" route="r9730" type="CarDefault" departLane="random" />
	<vehicle id="v3075" depart="420.99" route="r9729" type="CarDefault" departLane="random" />
	<vehicle id="v3840" depart="421.11" route="r9731" type="CarDefault" departLane="random" />
	<vehicle id="v4677" depart="422.5" route="r9730" type="CarDefault" departLane="random" />