<?xml version='1.0' encoding='utf-8'?>
<routes>
	<vType accel="3.0" decel="6.0" id="CarDefault" length="5.0" minGap="2.5" maxSpeed="50.0" sigma="0.5" />
	<route id="r4729" edges="226 225 224 1030 1028 114 457 323 774 502 892 893 503 740 1009 505 962 963 401" fromJunction="87" toJunction="358" />
	<route id="sr1065" edges="488 975 976 743 744 745 741 742 430 210 12 11 341 627 628 967 968 957 958 511 512 513 890 891 766 1018 1019 1020 1021 1022 898 961 1017 960 706" fromJunction="357" toJunction="248" />
	<route id="sr1066" edges="794 919 920 921 922 712 487 482 483 710 709 932 933 934 935 426 425 769 513 890 891 766 1018 1019 1020 1021 1022 898 961 1017 960 706" fromJunction="292" toJunction="248" />
	<route id="sr1064" edges="226 225 224 432 317 115 1029 444 443 506 507 508 509 510 892 893 503 740 1009 505 962 963 401" fromJunction="87" toJunction="358" />
	<route id="r4730" edges="794 919 920 921 922 712 487 711 254 944 267 266 311 345 866 867 706" fromJunction="292" toJunction="248" />
	<route id="r4731" edges="488 984 985 989 990 415 233 886 774 502 627 112 111 110 546 547 548 549 891 766 550 551 552 99 98 867 706" fromJunction="357" toJunction="248" />
	<vehicle id="v0" depart="0.0" route="r4729" type="CarDefault" departLane="random" />
	<vehicle id="v1456" depart="0.0" route="r4731" type="CarDefault" departLane="random" />
	<vehicle id="v2065" depart="0.0" route="r4730" type="CarDefault" departLane="random" />
	<vehicle id="v1" depart="5.26" route="r4729" type="CarDefault" departLane="random" />
	<vehicle id="v1457" depart="5.92" route="r4731" type="CarDefault" departLane="random" />
	<vehicle id="v2066" depart="8.82" route="r4730" type="CarDefault" departLane="random" />
	<vehicle id="v2" depart="10.53" route="r4729" type="CarDefault" departLane="random" />
	<vehicle id="v1458" depart="11.84" route="r4731" type="CarDefault" departLane="random" />
	<vehicle id="v3" depart="15.79" route="r4729" type="CarDefault" departLane="random" />
	<vehicle id="v2067" depart="17.65" route="r4730" type="CarDefault" departLane="random" />
	<vehicle id="v1459" depart="17.76" route="r4731" type="CarDefault" departLane="random" />
	<vehicle id="v4" depart="21.05" route="r4729" type="CarDefault" departLane="random" />
	<vehicle id="v1460" depart="23.68" route="r4731" type="CarDefault" departLane="random" />
	<vehicle id="v5" depart="26.32" route="r4729" type="CarDefault" departLane="random" />
	<vehicle id="v2068" depart="26.47" route="r4730" type="CarDefault" departLane="random" />
	<vehicle id="v1461" depart="29.61" route="r4731" type="CarDefault" departLane="random" />
	<vehicle id="v6" depart="31.58" route="r4729" type="CarDefault" departLane="random" />
	<vehicle id="v2069" depart="35.29" route="r4730" type="CarDefault" departLane="random" />
	<vehicle id="v1462" depart="35.53" route="r4731" type="CarDefault" departLane="random" />
	<vehicle id="v7" depart="36.84" route="r4729" type="CarDefault" departLane="random" />
	<vehicle id="v1463" depart="41.45" route="r4731" type="CarDefault" departLane="random" />
	<vehicle id="v8" depart="42.11" route="r4729" type="CarDefault" departLane="random" />
	<vehicle id="v2070" depart="44.12" route="r4730" type="CarDefault" departLane="random" />
	<vehicle id="v9" depart="47.37" route="r4729" type="CarDefault" departLane="random" />
	<vehicle id="v1464" depart="47.37" route="r4731" type="CarDefault" departLane="random" />
	<vehicle id="v10" depart="52.63" route="r4729" type="CarDefault" departLane="random" />
	<vehicle id="v2071" depart="52.94" route="r4730" type="CarDefault" departLane="random" />
	<vehicle id="v1465" depart="53.29" route="r4731" type="CarDefault" departLane="random" />
	<vehicle id="v11" depart="57.89" route="r4729" type="CarDefault" departLane="random" />
	<vehicle id="v1466" depart="59.21" route="r4731" type="CarDefault" departLane="random" />
	<vehicle id="v2072" depart="61.76" route="sr1066" type="CarDefault" departLane="random" />
	<vehicle id="v12" depart="63.16" route="sr1064" type="CarDefault" departLane="random" />
	<vehicle id="v1467" depart="65.13" route="sr1065" type="CarDefault" departLane="random" />
	<vehicle id="v13" depart="68.42" route="sr1064" type="CarDefault" departLane="random" />
	<vehicle id="v2073" depart="70.59" route="sr1066" type="CarDefault" departLane="random" />
	<vehicle id="v1468" depart="71.05" route="sr1065" type="CarDefault" departLane="random" />
	<vehicle id="v14" depart="73.68" route="sr1064" type="CarDefault" departLane="random" />
	<vehicle id="v1366" depart="75" route="sr1065" type="CarDefault" departLane="random" />
	<vehicle id="v1469" depart="76.97" route="sr1065" type="CarDefault" departLane="random" />
	<vehicle id="v15" depart="78.95" route="sr1064" type="CarDefault" departLane="random" />
	<vehicle id="v2074" depart="79.41" route="sr1066" type="CarDefault" departLane="random" />
	<vehicle id="v1470" depart="82.89" route="sr1065" type="CarDefault" departLane="random" />
	<vehicle id="v16" depart="84.21" route="sr1064" type="CarDefault" departLane="random" />
	<vehicle id="v2075" depart="88.24" route="sr1066" type="CarDefault" departLane="random" />
	<vehicle id="v1471" depart="88.82" route="sr1065" type="CarDefault" departLane="random" />
	<vehicle id="v17" depart="89.47" route="sr1064" type="CarDefault" departLane="random" />
	<vehicle id="v18" depart="94.74" route="r4729" type="CarDefault" departLane="random" />
	<vehicle id="v1472" depart="94.74" route="r4731" type="CarDefault" departLane="random" />
	<vehicle id="v2076" depart="97.06" route="r4730" type="CarDefault" departLane="random" />
	<vehicle id="v19" depart="100.0" route="r4729" type="CarDefault" departLane="random" />
	<vehicle id="v1473" depart="100.66" route="r4731" type="CarDefault" departLane="random" />
	<vehicle id="v20" depart="105.26" route="r4729" type="CarDefault" departLane="random" />
	<vehicle id="v2077" depart="105.88" route="r4730" type="CarDefault" departLane="random" />
	<vehicle id="v1474" depart="106.58" route="r4731" type="CarDefault" departLane="random" />
	<vehicle id="v21" depart="110.53" route="r4729" type="CarDefault" departLane="random" />
	<vehicle id="v1475" depart="112.5" route="r4731" type="CarDefault" departLane="random" />
	<vehicle id="v2078" depart="114.71" route="r4730" type="CarDefault" departLane="random" />
	<vehicle id="v22" depart="115.79" route="r4729" type="CarDefault" departLane="random" />
	<vehicle id="v1476" depart="118.42" route="r4731" type="CarDefault" departLane="random" />
	<vehicle id="v23" depart="121.05" route="sr1064" type="CarDefault" departLane="random" />
	<vehicle id="v2079" depart="123.53" route="sr1066" type="CarDefault" departLane="random" />
	<vehicle id="v1477" depart="124.34" route="sr1065" type="CarDefault" departLane="random" />
	<vehicle id="v24" depart="126.32" route="sr1064" type="CarDefault" departLane="random" />
	<vehicle id="v1478" depart="130.26" route="sr1065" type="CarDefault" departLane="random" />
	<vehicle id="v25" depart="131.58" route="sr1064" type="CarDefault" departLane="random" />
	<vehicle id="v2080" depart="132.35" route="sr1066" type="CarDefault" departLane="random" />
	<vehicle id="v1367" depart="134" route="sr1065" type="CarDefault" departLane="random" />
	<vehicle id="v1479" depart="136.18" route="sr1065" type="CarDefault" departLane="random" />
	<vehicle id="v26" depart="136.84" route="sr1064" type="CarDefault" departLane="random" />
	<vehicle id="v2081" depart="141.18" route="sr1066" type="CarDefault" departLane="random" />
	<vehicle id="v1368" depart="142" route="sr1065" type="CarDefault" departLane="random" />
	<vehicle id="v27" depart="142.11" route="sr1064" type="CarDefault" departLane="random" />
	<vehicle id="v1480" depart="142.11" route="sr1065" type="CarDefault" departLane="random" />
	<vehicle id="v28" depart="147.37" route="sr1064" type="CarDefault" departLane="random" />
	<vehicle id="v1481" depart="148.03" route="sr1065" type="CarDefault" departLane="random" />
	<vehicle id="v2082" depart="150.0" route="r4730" type="CarDefault" departLane="random" />
	<vehicle id="v29" depart="152.63" route="r4729" type="CarDefault" departLane="random" />
	<vehicle id="v1482" depart="153.95" route="r4731" type="CarDefault" departLane="random" />
	<vehicle id="v30" depart="157.89" route="r4729" type="CarDefault" departLane="random" />
	<vehicle id="v2083" depart="158.82" route="r4730" type="CarDefault" departLane="random" />
	<vehicle id="v1483" depart="159.87" route="r4731" type="CarDefault" departLane="random" />
	<vehicle id="v31" depart="163.16" route="r4729" type="CarDefault" departLane="random" />
	<vehicle id="v1484" depart="165.79" route="r4731" type="CarDefault" departLane="random" />
	<vehicle id="v2084" depart="167.65" route="r4730" type="CarDefault" departLane="random" />
	<vehicle id="v32" depart="168.42" route="r4729" type="CarDefault" departLane="random" />
	<vehicle id="v1485" depart="171.71" route="r4731" type="CarDefault" departLane="random" />
	<vehicle id="v33" depart="173.68" route="r4729" type="CarDefault" departLane="random" />
	<vehicle id="v2085" depart="176.47" route="r4730" type="CarDefault" departLane="random" />
	<vehicle id="v1486" depart="177.63" route="r4731" type="CarDefault" departLane="random" />
	<vehicle id="v34" depart="178.95" route="r4729" type="CarDefault" departLane="random" />
	<vehicle id="v1487" depart="183.55" route="r4731" type="CarDefault" departLane="random" />
	<vehicle id="v35" depart="184.21" route="r4729" type="CarDefault" departLane="random" />
	<vehicle id="v2086" depart="185.29" route="r4730" type="CarDefault" departLane="random" />
	<vehicle id="v36" depart="189.47" route="r4729" type="CarDefault" departLane="random" />
	<vehicle id="v1488" depart="189.47" route="r4731" type="CarDefault" departLane="random" />
	<vehicle id="v2087" depart="194.12" route="r4730" type="CarDefault" departLane="random" />
	<vehicle id="v37" depart="194.74" route="r4729" type="CarDefault" departLane="random" />
	<vehicle id="v1489" depart="195.39" route="r4731" type="CarDefault" departLane="random" />
	<vehicle id="v1369" depart="196" route="r4731" type="CarDefault" departLane="random" />
	<vehicle id="v38" depart="200.0" route="r4729" type="CarDefault" departLane="random" />
	<vehicle id="v1490" depart="201.32" route="r4731" type="CarDefault" departLane="random" />
	<vehicle id="v2088" depart="202.94" route="r4730" type="CarDefault" departLane="random" />
	<vehicle id="v39" depart="205.26" route="r4729" type="CarDefault" departLane="random" />
	<vehicle id="v1491" depart="207.24" route="r4731" type="CarDefault" departLane="random" />
	<vehicle id="v40" depart="210.53" route="r4729" type="CarDefault" departLane="random" />
	<vehicle id="v2089" depart="211.76" route="r4730" type="CarDefault" departLane="random" />
	<vehicle id="v1492" depart="213.16" route="r4731" type="CarDefault" departLane="random" />
	<vehicle id="v41" depart="215.79" route="r4729" type="CarDefault" departLane="random" />
	<vehicle id="v1493" depart="219.08" route="r4731" type="CarDefault" departLane="random" />
	<vehicle id="v2090" depart="220.59" route="r4730" type="CarDefault" departLane="random" />
	<vehicle id="v42" depart="221.05" route="r4729" type="CarDefault" departLane="random" />
	<vehicle id="v1494" depart="225.0" route="r4731" type="CarDefault" departLane="random" />
	<vehicle id="v43" depart="226.32" route="r4729" type="CarDefault" departLane="random" />
	<vehicle id="v2091" depart="229.41" route="r4730" type="CarDefault" departLane="random" />
	<vehicle id="v1495" depart="230.92" route="r4731" type="CarDefault" departLane="random" />
	<vehicle id="v44" depart="231.58" route="r4729" type="CarDefault" departLane="random" />
	<vehicle id="v45" depart="236.84" route="r4729" type="CarDefault" departLane="random" />
	<vehicle id="v1496" depart="236.84" route="r4731" type="CarDefault" departLane="random" />
	<vehicle id="v2092" depart="238.24" route="r4730" type="CarDefault" departLane="random" />
	<vehicle id="v46" depart="242.11" route="r4729" type="CarDefault" departLane="random" />
	<vehicle id="v1497" depart="242.76" route="r4731" type="CarDefault" departLane="random" />
	<vehicle id="v2093" depart="247.06" route="r4730" type="CarDefault" departLane="random" />
	<vehicle id="v47" depart="247.37" route="r4729" type="CarDefault" departLane="random" />
	<vehicle id="v1498" depart="248.68" route="r4731" type="CarDefault" departLane="random" />
	<vehicle id="v1370" depart="250" route="r4731" type="CarDefault" departLane="random" />
	<vehicle id="v48" depart="252.63" route="r4729" type="CarDefault" departLane="random" />
	<vehicle id="v1499" depart="254.61" route="r4731" type="CarDefault" departLane="random" />
	<vehicle id="v2094" depart="255.88" route="r4730" type="CarDefault" departLane="random" />
	<vehicle id="v49" depart="257.89" route="r4729" type="CarDefault" departLane="random" />
	<vehicle id="v1500" depart="260.53" route="r4731" type="CarDefault" departLane="random" />
	<vehicle id="v50" depart="263.16" route="r4729" type="CarDefault" departLane="random" />
	<vehicle id="v2095" depart="264.71" route="r4730" type="CarDefault" departLane="random" />
	<vehicle id="v1501" depart="266.45" route="r4731" type="CarDefault" departLane="random" />
	<vehicle id="v51" depart="268.42" route="r4729" type="CarDefault" departLane="random" />
	<vehicle id="v1502" depart="272.37" route="r4731" type="CarDefault" departLane="random" />
	<vehicle id="v2096" depart="273.53" route="r4730" type="CarDefault" departLane="random" />
	<vehicle id="v52" depart="273.68" route="r4729" type="CarDefault" departLane="random" />
	<vehicle id="v1503" depart="278.29" route="r4731" type="CarDefault" departLane="random" />
	<vehicle id="v53" depart="278.95" route="r4729" type="CarDefault" departLane="random" />
	<vehicle id="v2097" depart="282.35" route="r4730" type="CarDefault" departLane="random" />
	<vehicle id="v54" depart="284.21" route="r4729" type="CarDefault" departLane="random" />
	<vehicle id="v1504" depart="284.21" route="r4731" type="CarDefault" departLane="random" />
	<vehicle id="v55" depart="289.47" route="r4729" type="CarDefault" departLane="random" />
	<vehicle id="v1505" depart="290.13" route="r4731" type="CarDefault" departLane="random" />
	<vehicle id="v2098" depart="291.18" route="r4730" type="CarDefault" departLane="random" />
	<vehicle id="v56" depart="294.74" route="r4729" type="CarDefault" departLane="random" />
	<vehicle id="v1506" depart="296.05" route="r4731" type="CarDefault" departLane="random" />
	<vehicle id="v1371" depart="297" route="r4731" type="CarDefault" departLane="random" />
	<vehicle id="v57" depart="300.0" route="sr1064" type="CarDefault" departLane="random" />
	<vehicle id="v2099" depart="300.0" route="sr1066" type="CarDefault" departLane="random" />
	<vehicle id="v1507" depart="301.97" route="sr1065" type="CarDefault" departLane="random" />
	<vehicle id="v58" depart="305.26" route="sr1064" type="CarDefault" departLane="random" />
	<vehicle id="v1508" depart="307.89" route="sr1065" type="CarDefault" departLane="random" />
	<vehicle id="v1372" depart="308" route="sr1065" type="CarDefault" departLane="random" />
	<vehicle id="v2100" depart="308.82" route="sr1066" type="CarDefault" departLane="random" />
	<vehicle id="v59" depart="310.53" route="sr1064" type="CarDefault" departLane="random" />
	<vehicle id="v1509" depart="313.82" route="sr1065" type="CarDefault" departLane="random" />
	<vehicle id="v60" depart="315.79" route="sr1064" type="CarDefault" departLane="random" />
	<vehicle id="v2101" depart="317.65" route="sr1066" type="CarDefault" departLane="random" />
	<vehicle id="v1510" depart="319.74" route="sr1065" type="CarDefault" departLane="random" />
	<vehicle id="v61" depart="321.05" route="sr1064" type="CarDefault" departLane="random" />
	<vehicle id="v1511" depart="325.66" route="sr1065" type="CarDefault" departLane="random" />
	<vehicle id="v62" depart="326.32" route="sr1064" type="CarDefault" departLane="random" />
	<vehicle id="v2102" depart="326.47" route="sr1066" type="CarDefault" departLane="random" />
	<vehicle id="v1373" depart="331" route="r4731" type="CarDefault" departLane="random" />
	<vehicle id="v63" depart="331.58" route="r4729" type="CarDefault" departLane="random" />
	<vehicle id="v1512" depart="331.58" route="r4731" type="CarDefault" departLane="random" />
	<vehicle id="v2103" depart="335.29" route="r4730" type="CarDefault" departLane="random" />
	<vehicle id="v64" depart="336.84" route="r4729" type="CarDefault" departLane="random" />
	<vehicle id="v1513" depart="337.5" route="r4731" type="CarDefault" departLane="random" />
	<vehicle id="v65" depart="342.11" route="r4729" type="CarDefault" departLane="random" />
	<vehicle id="v1514" depart="343.42" route="r4731" type="CarDefault" departLane="random" />
	<vehicle id="v2104" depart="344.12" route="r4730" type="CarDefault" departLane="random" />
	<vehicle id="v66" depart="347.37" route="r4729" type="CarDefault" departLane="random" />
	<vehicle id="v1515" depart="349.34" route="r4731" type="CarDefault" departLane="random" />
	<vehicle id="v67" depart="352.63" route="r4729" type="CarDefault" departLane="random" />
	<vehicle id="v2105" depart="352.94" route="r4730" type="CarDefault" departLane="random" />
	<vehicle id="v1516" depart="355.26" route="r4731" type="CarDefault" departLane="random" />
	<vehicle id="v68" depart="357.89" route="r4729" type="CarDefault" departLane="random" />
	<vehicle id="v1517" depart="361.18" route="r4731" type="CarDefault" departLane="random" />
	<vehicle id="v2106" depart="361.76" route="r4730" type="CarDefault" departLane="random" />
	<vehicle id="v69" depart="363.16" route="r4729" type="CarDefault" departLane="random" />
	<vehicle id="v1518" depart="367.11" route="r4731" type="CarDefault" departLane="random" />
	<vehicle id="v70" depart="368.42" route="r4729" type="CarDefault" departLane="random" />
	<vehicle id="v2107" depart="370.59" route="r4730" type="CarDefault" departLane="random" />
	<vehicle id="v1519" depart="373.03" route="r4731" type="CarDefault" departLane="random" />
	<vehicle id="v71" depart="373.68" route="r4729" type="CarDefault" departLane="random" />
	<vehicle id="v72" depart="378.95" route="r4729" type="CarDefault" departLane="random" />
	<vehicle id="v1520" depart="378.95" route="r4731" type="CarDefault" departLane="random" />
	<vehicle id="v2108" depart="379.41" route="r4730" type="CarDefault" departLane="random" />
	<vehicle id="v73" depart="384.21" route="r4729" type="CarDefault" departLane="random" />
	<vehicle id="v1521" depart="384.87" route="r4731" type="CarDefault" departLane="random" />
	<vehicle id="v2109" depart="388.24" route="r4730" type="CarDefault" departLane="random" />
	<vehicle id="v74" depart="389.47" route="r4729" type="CarDefault" departLane="random" />
	<vehicle id="v1522" depart="390.79" route="r4731" type="CarDefault" departLane="random" />
	<vehicle id="v75" depart="394.74" route="r4729" type="CarDefault" departLane="random" />
	<vehicle id="v1523" depart="396.71" route="r4731" type="CarDefault" departLane="random" />
	<vehicle id="v2110" depart="397.06" route="r4730" type="CarDefault" departLane="random" />
	<vehicle id="v76" depart="400.0" route="r4729" type="CarDefault" departLane="random" />
	<vehicle id="v1524" depart="402.63" route="r4731" type="CarDefault" departLane="random" />
	<vehicle id="v77" depart="405.26" route="r4729" type="CarDefault" departLane="random" />
	<vehicle id="v2111" depart="405.88" route="r4730" type="CarDefault" departLane="random" />
	<vehicle id="v1525" depart="408.55" route="r4731" type="CarDefault" departLane="random" />
	<vehicle id="v78" depart="410.53" route="r4729" type="CarDefault" departLane="random" />
	<vehicle id="v1526" depart="414.47" route="r4731" type="CarDefault" departLane="random" />
	<vehicle id="v2112" depart="414.71" route="r4730" type="CarDefault" departLane="random" />
	<vehicle id="v79" depart="415.79" route="r4729" type="CarDefault" departLane="random" />
	<vehicle id="v1527" depart="420.39" route="r4731" type="CarDefault" departLane="random" />
	<vehicle id="v80" depart="421.05" route="r4729" type="CarDefault" departLane="random" />
	<vehicle id="v2113" depart="423.53" route="r4730" type="CarDefault" departLane="random" />
	<vehicle id="v81" depart="426.32" route="r4729" type="CarDefault" departLane="random" />
	<vehicle id="v1528" depart="426.32" route="r4731" type="CarDefault" departLane="random" />
	<vehicle id="v1374" depart="428" route="r4731" type="CarDefault" departLane="random" />
	<vehicle id="v82" depart="431.58" route="r4729" type="CarDefault" departLane="random" />
	<vehicle id="v1529" depart="432.24" route="r4731" type="CarDefault" departLane="random" />
	<vehicle id="v2114" depart="432.35" route="r4730" type="CarDefault" departLane="random" />
	<vehicle id="v83" depart="436.84" route="r4729" type="CarDefault" departLane="random" />
	<vehicle id="v1530" depart="438.16" route="r4731" type="CarDefault" departLane="random" />
	<vehicle id="v2115" depart="441.18" route="r4730" type="CarDefault" departLane="random" />
	<vehicle id="v84" depart="442.11" route="r4729" type="CarDefault" departLane="random" />
	<vehicle id="v1531" depart="444.08" route="r4731" type="CarDefault" departLane="random" />
	<vehicle id="v85" depart="447.37" route="r4729" type="CarDefault" departLane="random" />
	<vehicle id="v1532" depart="450.0" route="r4731" type="CarDefault" departLane="random" />
	<vehicle id="v2116" depart="450.0" route="r4730" type="CarDefault" departLane="random" />
	<vehicle id="v86" depart="452.63" route="r4729" type="CarDefault" departLane="random" />
	<vehicle id="v1533" depart="455.92" route="r4731" type="CarDefault" departLane="random" />
	<vehicle id="v87" depart="457.89" route="r4729" type="CarDefault" departLane="random" />
	<vehicle id="v2117" depart="458.82" route="r4730" type="CarDefault" departLane="random" />
	<vehicle id="v1534" depart="461.84" route="r4731" type="CarDefault" departLane="random" />
	<vehicle id="v88" depart="463.16" route="r4729" type="CarDefault" departLane="random" />
	<vehicle id="v2118" depart="467.65" route="r4730" type="CarDefault" departLane="random" />
	<vehicle id="v1535" depart="467.76" route="r4731" type="CarDefault" departLane="random" />
	<vehicle id="v89" depart="468.42" route="r4729" type="CarDefault" departLane="random" />
	<vehicle id="v90" depart="473.68" route="r4729" type="CarDefault" departLane="random" />
	<vehicle id="v1536" depart="473.68" route="r4731" type="CarDefault" departLane="random" />
	<vehicle id="v2119" depart="476.47" route="r4730" type="CarDefault" departLane="random" />
	<vehicle id="v91" depart="478.95" route="r4729" type="CarDefault" departLane="random" />
	<vehicle id="v1537" depart="479.61" route="r4731" type="CarDefault" departLane="random" />
	<vehicle id="v92" depart="484.21" route="r4729" type="CarDefault" departLane="random" />
	<vehicle id="v2120" depart="485.29" route="r4730" type="CarDefault" departLane="random" />
	<vehicle id="v1538" depart="485.53" route="r4731" type="CarDefault" departLane="random" />
	<vehicle id="v93" depart="489.47" route="r4729" type="CarDefault" departLane="random" />
	<vehicle id="v1539" depart="491.45" route="r4731" type="CarDefault" departLane="random" />
	<vehicle id="v2121" depart="494.12" route="r4730" type="CarDefault" departLane="random" />
	<vehicle id="v94" depart="494.74" route="r4729" type="CarDefault" departLane="random" />
	<vehicle id="v1540" depart="497.37" route="r4731" type="CarDefault" departLane="random" />
	<vehicle id="v95" depart="500.0" route="r4729" type="CarDefault" departLane="random" />
	<vehicle id="v2122" depart="502.94" route="r4730" type="CarDefault" departLane="random" />
	<vehicle id="v1541" depart="503.29" route="r4731" type="CarDefault" departLane="random" />
	<vehicle id="v96" depart="505.26" route="r4729" type="CarDefault" departLane="random" />
	<vehicle id="v1542" depart="509.21" route="r4731" type="CarDefault" departLane="random" />
	<vehicle id="v97" depart="510.53" route="sr1064" type="CarDefault" departLane="random" />
	<vehicle id="v2123" depart="511.76" route="sr1066" type="CarDefault" departLane="random" />
	<vehicle id="v1375" depart="512" route="sr1065" type="CarDefault" departLane="random" />
	<vehicle id="v1543" depart="515.13" route="sr1065" type="CarDefault" departLane="random" />
	<vehicle id="v98" depart="515.79" route="sr1064" type="CarDefault" departLane="random" />
	<vehicle id="v2124" depart="520.59" route="sr1066" type="CarDefault" departLane="random" />
	<vehicle id="v99" depart="521.05" route="sr1064" type="CarDefault" departLane="random" />
	<vehicle id="v1544" depart="521.05" route="sr1065" type="CarDefault" departLane="random" />
	<vehicle id="v100" depart="526.32" route="sr1064" type="CarDefault" departLane="random" />
	<vehicle id="v1545" depart="526.97" route="sr1065" type="CarDefault" departLane="random" />
	<vehicle id="v1376" depart="529" route="sr1065" type="CarDefault" departLane="random" />
	<vehicle id="v2125" depart="529.41" route="sr1066" type="CarDefault" departLane="random" />
	<vehicle id="v101" depart="531.58" route="sr1064" type="CarDefault" departLane="random" />
	<vehicle id="v1546" depart="532.89" route="sr1065" type="CarDefault" departLane="random" />
	<vehicle id="v102" depart="536.84" route="sr1064" type="CarDefault" departLane="random" />
	<vehicle id="v2126" depart="538.24" route="sr1066" type="CarDefault" departLane="random" />
	<vehicle id="v1547" depart="538.82" route="sr1065" type="CarDefault" departLane="random" />
	<vehicle id="v103" depart="542.11" route="r4729" type="CarDefault" departLane="random" />
	<vehicle id="v1548" depart="544.74" route="r4731" type="CarDefault" departLane="random" />
	<vehicle id="v2127" depart="547.06" route="r4730" type="CarDefault" departLane="random" />
	<vehicle id="v104" depart="547.37" route="r4729" type="CarDefault" departLane="random" />
	<vehicle id="v1549" depart="550.66" route="r4731" type="CarDefault" departLane="random" />
	<vehicle id="v105" depart="552.63" route="r4729" type="CarDefault" departLane="random" />
	<vehicle id="v2128" depart="555.88" route="r4730" type="CarDefault" departLane="random" />
	<vehicle id="v1550" depart="556.58" route="r4731" type="CarDefault" departLane="random" />
	<vehicle id="v106" depart="557.89" route="r4729" type="CarDefault" departLane="random" />
	<vehicle id="v1551" depart="562.5" route="r4731" type="CarDefault" departLane="random" />
	<vehicle id="v107" depart="563.16" route="r4729" type="CarDefault" departLane="random" />
	<vehicle id="v2129" depart="564.71" route="r4730" type="CarDefault" departLane="random" />
	<vehicle id="v108" depart="568.42" route="r4729" type="CarDefault" departLane="random" />
	<vehicle id="v1552" depart="568.42" route="r4731" type="CarDefault" departLane="random" />
	<vehicle id="v2130" depart="573.53" route="r4730" type="CarDefault" departLane="random" />
	<vehicle id="v109" depart="573.68" route="r4729" type="CarDefault" departLane="random" />
	<vehicle id="v1553" depart="574.34" route="r4731" type="CarDefault" departLane="random" />
	<vehicle id="v1377" depart="576" route="r4731" type="CarDefault" departLane="random" />
	<vehicle id="v110" depart="578.95" route="r4729" type="CarDefault" departLane="random" />
	<vehicle id="v1554" depart="580.26" route="r4731" type="CarDefault" departLane="random" />
	<vehicle id="v2131" depart="582.35" route="r4730" type="CarDefault" departLane="random" />
	<vehicle id="v111" depart="584.21" route="r4729" type="CarDefault" departLane="random" />
	<vehicle id="v1555" depart="586.18" route="r4731" type="CarDefault" departLane="random" />
	<vehicle id="v112" depart="589.47" route="r4729" type="CarDefault" departLane="random" />
	<vehicle id="v2132" depart="591.18" route="r4730" type="CarDefault" departLane="random" />
	<vehicle id="v1556" depart="592.11" route="r4731" type="CarDefault" departLane="random" />
	<vehicle id="v113" depart="594.74" route="r4729" type="CarDefault" departLane="random" />
	<vehicle id="v1557" depart="598.03" route="r4731" type="CarDefault" departLane="random" />
	<vehicle id="v114" depart="600.0" route="sr1064" type="CarDefault" departLane="random" />
	<vehicle id="v2133" depart="600.0" route="sr1066" type="CarDefault" departLane="random" />
	<vehicle id="v273" depart="603" route="sr1064" type="CarDefault" departLane="random" />
	<vehicle id="v1558" depart="603.95" route="sr1065" type="CarDefault" departLane="random" />
	<vehicle id="v115" depart="605.26" route="sr1064" type="CarDefault" departLane="random" />
	<vehicle id="v2134" depart="608.82" route="sr1066" type="CarDefault" departLane="random" />
	<vehicle id="v1559" depart="609.87" route="sr1065" type="CarDefault" departLane="random" />
	<vehicle id="v116" depart="610.53" route="sr1064" type="CarDefault" departLane="random" />
	<vehicle id="v117" depart="615.79" route="sr1064" type="CarDefault" departLane="random" />
	<vehicle id="v1560" depart="615.79" route="sr1065" type="CarDefault" departLane="random" />
	<vehicle id="v2135" depart="617.65" route="sr1066" type="CarDefault" departLane="random" />
	<vehicle id="v2229" depart="619" route="sr1066" type="CarDefault" departLane="random" />
	<vehicle id="v118" depart="621.05" route="sr1064" type="CarDefault" departLane="random" />
	<vehicle id="v1561" depart="621.71" route="sr1065" type="CarDefault" departLane="random" />
	<vehicle id="v119" depart="626.32" route="sr1064" type="CarDefault" departLane="random" />
	<vehicle id="v2136" depart="626.47" route="sr1066" type="CarDefault" departLane="random" />
	<vehicle id="v1562" depart="627.63" route="sr1065" type="CarDefault" departLane="random" />
	<vehicle id="v1378" depart="631" route="sr1065" type="CarDefault" departLane="random" />
	<vehicle id="v120" depart="631.58" route="sr1064" type="CarDefault" departLane="random" />
	<vehicle id="v1563" depart="633.55" route="sr1065" type="CarDefault" departLane="random" />