<?xml version='1.0' encoding='utf-8'?>
<routes>
	<vType accel="3.0" decel="6.0" id="CarDefault" length="5.0" minGap="2.5" maxSpeed="50.0" sigma="0.5" />
	<route id="r1662" edges="13 83 118 136 137 138 5 44 73 105 54 53" fromJunction="69" toJunction="81" />
	<route id="sr1179" edges="22 12 112 19 8 0 32 31 182 87 88 89 179 178" fromJunction="78" toJunction="19" />
	<route id="sr1180" edges="13 83 118 136 137 138 5 63 135 163 54 53" fromJunction="69" toJunction="81" />
	<route id="sr1178" edges="55 169 130 131 56 73 105 1 30 50 157 154 125 143 144" fromJunction="83" toJunction="70" />
	<route id="sr1177" edges="15 139 97 119 117 120 136 137 138 5 9 21 32 31 182 75 78 79" fromJunction="15" toJunction="73" />
	<route id="r1663" edges="55 169 146 153 105 1 164 104 40 70 144" fromJunction="83" toJunction="70" />
	<route id="r1664" edges="15 139 97 119 117 120 25 11 52 51 21 32 31 182 75 78 79" fromJunction="15" toJunction="73" />
	<vehicle id="v4094" depart="0.0" route="r1664" type="CarDefault" departLane="random" />
	<vehicle id="v4855" depart="0.0" route="r1663" type="CarDefault" departLane="random" />
	<vehicle id="v6312" depart="0.0" route="sr1179" type="CarDefault" departLane="random" />
	<vehicle id="v7194" depart="0.0" route="r1662" type="CarDefault" departLane="random" />
	<vehicle id="v7195" depart="3.22" route="r1662" type="CarDefault" departLane="random" />
	<vehicle id="v6313" depart="4.53" route="sr1179" type="CarDefault" departLane="random" />
	<vehicle id="v4856" depart="5.26" route="r1663" type="CarDefault" departLane="random" />
	<vehicle id="v7196" depart="6.44" route="r1662" type="CarDefault" departLane="random" />
	<vehicle id="v6314" depart="9.07" route="sr1179" type="CarDefault" departLane="random" />
	<vehicle id="v4095" depart="9.52" route="r1664" type="CarDefault" departLane="random" />
	<vehicle id="v7197" depart="9.66" route="r1662" type="CarDefault" departLane="random" />
	<vehicle id="v4857" depart="10.53" route="r1663" type="CarDefault" departLane="random" />
	<vehicle id="v7198" depart="12.88" route="r1662" type="CarDefault" departLane="random" />
	<vehicle id="v6315" depart="13.6" route="sr1179" type="CarDefault" departLane="random" />
	<vehicle id="v4858" depart="15.79" route="r1663" type="CarDefault" departLane="random" />
	<vehicle id="v7199" depart="16.1" route="r1662" type="CarDefault" departLane="random" />
	<vehicle id="v7107" depart="17" route="r1662" type="CarDefault" departLane="random" />
	<vehicle id="v6316" depart="18.14" route="sr1179" type="CarDefault" departLane="random" />
	<vehicle id="v4096" depart="19.05" route="r1664" type="CarDefault" departLane="random" />
	<vehicle id="v7200" depart="19.32" route="r1662" type="CarDefault" departLane="random" />
	<vehicle id="v6221" depart="21" route="sr1179" type="CarDefault" departLane="random" />
	<vehicle id="v4859" depart="21.05" route="r1663" type="CarDefault" departLane="random" />
	<vehicle id="v7201" depart="22.54" route="r1662" type="CarDefault" departLane="random" />
	<vehicle id="v6317" depart="22.67" route="sr1179" type="CarDefault" departLane="random" />
	<vehicle id="v7202" depart="25.76" route="r1662" type="CarDefault" departLane="random" />
	<vehicle id="v4860" depart="26.32" route="r1663" type="CarDefault" departLane="random" />
	<vehicle id="v6318" depart="27.2" route="sr1179" type="CarDefault" departLane="random" />
	<vehicle id="v4097" depart="28.57" route="r1664" type="CarDefault" departLane="random" />
	<vehicle id="v7203" depart="28.98" route="r1662" type="CarDefault" departLane="random" />
	<vehicle id="v4861" depart="31.58" route="r1663" type="CarDefault" departLane="random" />
	<vehicle id="v6319" depart="31.74" route="sr1179" type="CarDefault" departLane="random" />
	<vehicle id="v7204" depart="32.2" route="r1662" type="CarDefault" departLane="random" />
	<vehicle id="v7205" depart="35.42" route="r1662" type="CarDefault" departLane="random" />
	<vehicle id="v6320" depart="36.27" route="sr1179" type="CarDefault" departLane="random" />
	<vehicle id="v4862" depart="36.84" route="r1663" type="CarDefault" departLane="random" />
	<vehicle id="v4098" depart="38.1" route="r1664" type="CarDefault" departLane="random" />
	<vehicle id="v7206" depart="38.64" route="r1662" type="CarDefault" departLane="random" />
	<vehicle id="v6321" depart="40.81" route="sr1179" type="CarDefault" departLane="random" />
	<vehicle id="v7207" depart="41.86" route="r1662" type="CarDefault" departLane="random" />
	<vehicle id="v4863" depart="42.11" route="r1663" type="CarDefault" departLane="random" />
	<vehicle id="v7208" depart="45.08" route="r1662" type="CarDefault" departLane="random" />
	<vehicle id="v6322" depart="45.34" route="sr1179" type="CarDefault" departLane="random" />
	<vehicle id="v4864" depart="47.37" route="r1663" type="CarDefault" departLane="random" />
	<vehicle id="v4099" depart="47.62" route="r1664" type="CarDefault" departLane="random" />
	<vehicle id="v7209" depart="48.3" route="r1662" type="CarDefault" departLane="random" />
	<vehicle id="v6323" depart="49.87" route="sr1179" type="CarDefault" departLane="random" />
	<vehicle id="v7210" depart="51.52" route="r1662" type="CarDefault" departLane="random" />
	<vehicle id="v4865" depart="52.63" route="r1663" type="CarDefault" departLane="random" />
	<vehicle id="v6324" depart="54.41" route="sr1179" type="CarDefault" departLane="random" />
	<vehicle id="v7211" depart="54.74" route="r1662" type="CarDefault" departLane="random" />
	<vehicle id="v4100" depart="57.14" route="r1664" type="CarDefault" departLane="random" />
	<vehicle id="v4866" depart="57.89" route="r1663" type="CarDefault" departLane="random" />
	<vehicle id="v7212" depart="57.96" route="r1662" type="CarDefault" departLane="random" />
	<vehicle id="v6325" depart="58.94" route="sr1179" type="CarDefault" departLane="random" />
	<vehicle id="v7213" depart="61.18" route="r1662" type="CarDefault" departLane="random" />
	<vehicle id="v4867" depart="63.16" route="r1663" type="CarDefault" departLane="random" />
	<vehicle id="v6326" depart="63.48" route="sr1179" type="CarDefault" departLane="random" />
	<vehicle id="v7214" depart="64.4" route="r1662" type="CarDefault" departLane="random" />
	<vehicle id="v4101" depart="66.67" route="r1664" type="CarDefault" departLane="random" />
	<vehicle id="v7215" depart="67.62" route="r1662" type="CarDefault" departLane="random" />
	<vehicle id="v6327" depart="68.01" route="sr1179" type="CarDefault" departLane="random" />
	<vehicle id="v4868" depart="68.42" route="r1663" type="CarDefault" departLane="random" />
	<vehicle id="v7216" depart="70.84" route="r1662" type="CarDefault" departLane="random" />
	<vehicle id="v6328" depart="72.54" route="sr1179" type="CarDefault" departLane="random" />
	<vehicle id="v4869" depart="73.68" route="r1663" type="CarDefault" departLane="random" />
	<vehicle id="v7217" depart="74.06" route="r1662" type="CarDefault" departLane="random" />
	<vehicle id="v4102" depart="76.19" route="r1664" type="CarDefault" departLane="random" />
	<vehicle id="v6329" depart="77.08" route="sr1179" type="CarDefault" departLane="random" />
	<vehicle id="v7218" depart="77.28" route="r1662" type="CarDefault" departLane="random" />
	<vehicle id="v4870" depart="78.95" route="r1663" type="CarDefault" departLane="random" />
	<vehicle id="v7219" depart="80.5" route="r1662" type="CarDefault" departLane="random" />
	<vehicle id="v6330" depart="81.61" route="sr1179" type="CarDefault" departLane="random" />
	<vehicle id="v7220" depart="83.72" route="r1662" type="CarDefault" departLane="random" />
	<vehicle id="v4871" depart="84.21" route="r1663" type="CarDefault" departLane="random" />
	<vehicle id="v4103" depart="85.71" route="r1664" type="CarDefault" departLane="random" />
	<vehicle id="v6331" depart="86.15" route="sr1179" type="CarDefault" departLane="random" />
	<vehicle id="v7221" depart="86.94" route="r1662" type="CarDefault" departLane="random" />
	<vehicle id="v7108" depart="88" route="r1662" type="CarDefault" departLane="random" />
	<vehicle id="v4872" depart="89.47" route="r1663" type="CarDefault" departLane="random" />
	<vehicle id="v7222" depart="90.16" route="r1662" type="CarDefault" departLane="random" />
	<vehicle id="v6332" depart="90.68" route="sr1179" type="CarDefault" departLane="random" />
	<vehicle id="v7223" depart="93.38" route="r1662" type="CarDefault" departLane="random" />
	<vehicle id="v4873" depart="94.74" route="r1663" type="CarDefault" departLane="random" />
	<vehicle id="v6333" depart="95.21" route="sr1179" type="CarDefault" departLane="random" />
	<vehicle id="v4104" depart="95.24" route="r1664" type="CarDefault" departLane="random" />
	<vehicle id="v7224" depart="96.6" route="r1662" type="CarDefault" departLane="random" />
	<vehicle id="v6334" depart="99.75" route="sr1179" type="CarDefault" departLane="random" />
	<vehicle id="v7225" depart="99.82" route="r1662" type="CarDefault" departLane="random" />
	<vehicle id="v4874" depart="100.0" route="r1663" type="CarDefault" departLane="random" />
	<vehicle id="v7109" depart="101" route="r1662" type="CarDefault" departLane="random" />
	<vehicle id="v7226" depart="103.04" route="r1662" type="CarDefault" departLane="random" />
	<vehicle id="v6335" depart="104.28" route="sr1179" type="CarDefault" departLane="random" />
	<vehicle id="v4105" depart="104.76" route="r1664" type="CarDefault" departLane="random" />
	<vehicle id="v4875" depart="105.26" route="r1663" type="CarDefault" departLane="random" />
	<vehicle id="v7227" depart="106.26" route="r1662" type="CarDefault" departLane="random" />
	<vehicle id="v6336" depart="108.82" route="sr1179" type="CarDefault" departLane="random" />
	<vehicle id="v7228" depart="109.48" route="r1662" type="CarDefault" departLane="random" />
	<vehicle id="v4876" depart="110.53" route="r1663" type="CarDefault" departLane="random" />
	<vehicle id="v7229" depart="112.7" route="r1662" type="CarDefault" departLane="random" />
	<vehicle id="v6337" depart="113.35" route="sr1179" type="CarDefault" departLane="random" />
	<vehicle id="v4106" depart="114.29" route="r1664" type="CarDefault" departLane="random" />
	<vehicle id="v4877" depart="115.79" route="r1663" type="CarDefault" departLane="random" />
	<vehicle id="v7230" depart="115.92" route="r1662" type="CarDefault" departLane="random" />
	<vehicle id="v6338" depart="117.88" route="sr1179" type="CarDefault" departLane="random" />
	<vehicle id="v6222" depart="118" route="sr1179" type="CarDefault" departLane="random" />
	<vehicle id="v7231" depart="119.14" route="r1662" type="CarDefault" departLane="random" />
	<vehicle id="v4878" depart="121.05" route="r1663" type="CarDefault" departLane="random" />
	<vehicle id="v7232" depart="122.36" route="r1662" type="CarDefault" departLane="random" />
	<vehicle id="v6339" depart="122.42" route="sr1179" type="CarDefault" departLane="random" />
	<vehicle id="v6223" depart="123" route="sr1179" type="CarDefault" departLane="random" />
	<vehicle id="v4107" depart="123.81" route="r1664" type="CarDefault" departLane="random" />
	<vehicle id="v7233" depart="125.58" route="r1662" type="CarDefault" departLane="random" />
	<vehicle id="v4879" depart="126.32" route="r1663" type="CarDefault" departLane="random" />
	<vehicle id="v6340" depart="126.95" route="sr1179" type="CarDefault" departLane="random" />
	<vehicle id="v7234" depart="128.8" route="r1662" type="CarDefault" departLane="random" />
	<vehicle id="v6341" depart="131.49" route="sr1179" type="CarDefault" departLane="random" />
	<vehicle id="v4880" depart="131.58" route="r1663" type="CarDefault" departLane="random" />
	<vehicle id="v7235" depart="132.02" route="r1662" type="CarDefault" departLane="random" />
	<vehicle id="v4108" depart="133.33" route="r1664" type="CarDefault" departLane="random" />
	<vehicle id="v7236" depart="135.24" route="r1662" type="CarDefault" departLane="random" />
	<vehicle id="v6342" depart="136.02" route="sr1179" type="CarDefault" departLane="random" />
	<vehicle id="v4881" depart="136.84" route="r1663" type="CarDefault" departLane="random" />
	<vehicle id="v7237" depart="138.46" route="r1662" type="CarDefault" departLane="random" />
	<vehicle id="v6343" depart="140.55" route="sr1179" type="CarDefault" departLane="random" />
	<vehicle id="v7238" depart="141.68" route="r1662" type="CarDefault" departLane="random" />
	<vehicle id="v4882" depart="142.11" route="r1663" type="CarDefault" departLane="random" />
	<vehicle id="v4109" depart="142.86" route="r1664" type="CarDefault" departLane="random" />
	<vehicle id="v7239" depart="144.9" route="r1662" type="CarDefault" departLane="random" />
	<vehicle id="v6344" depart="145.09" route="sr1179" type="CarDefault" departLane="random" />
	<vehicle id="v7110" depart="146" route="r1662" type="CarDefault" departLane="random" />
	<vehicle id="v4883" depart="147.37" route="r1663" type="CarDefault" departLane="random" />
	<vehicle id="v7240" depart="148.12" route="r1662" type="CarDefault" departLane="random" />
	<vehicle id="v6345" depart="149.62" route="sr1179" type="CarDefault" departLane="random" />
	<vehicle id="v7241" depart="151.34" route="r1662" type="CarDefault" departLane="random" />
	<vehicle id="v4110" depart="152.38" route="r1664" type="CarDefault" departLane="random" />
	<vehicle id="v4884" depart="152.63" route="r1663" type="CarDefault" departLane="random" />
	<vehicle id="v6346" depart="154.16" route="sr1179" type="CarDefault" departLane="random" />
	<vehicle id="v7242" depart="154.56" route="r1662" type="CarDefault" departLane="random" />
	<vehicle id="v7243" depart="157.78" route="r1662" type="CarDefault" departLane="random" />
	<vehicle id="v4885" depart="157.89" route="r1663" type="CarDefault" departLane="random" />
	<vehicle id="v6347" depart="158.69" route="sr1179" type="CarDefault" departLane="random" />
	<vehicle id="v7244" depart="161.0" route="r1662" type="CarDefault" departLane="random" />
	<vehicle id="v4111" depart="161.9" route="r1664" type="CarDefault" departLane="random" />
	<vehicle id="v4886" depart="163.16" route="r1663" type="CarDefault" departLane="random" />
	<vehicle id="v6348" depart="163.22" route="sr1179" type="CarDefault" departLane="random" />
	<vehicle id="v7245" depart="164.22" route="r1662" type="CarDefault" departLane="random" />
	<vehicle id="v7246" depart="167.44" route="r1662" type="CarDefault" departLane="random" />
	<vehicle id="v6349" depart="167.76" route="sr1179" type="CarDefault" departLane="random" />
	<vehicle id="v4887" depart="168.42" route="r1663" type="CarDefault" departLane="random" />
	<vehicle id="v7247" depart="170.66" route="r1662" type="CarDefault" departLane="random" />
	<vehicle id="v4112" depart="171.43" route="r1664" type="CarDefault" departLane="random" />
	<vehicle id="v6350" depart="172.29" route="sr1179" type="CarDefault" departLane="random" />
	<vehicle id="v4888" depart="173.68" route="r1663" type="CarDefault" departLane="random" />
	<vehicle id="v7248" depart="173.88" route="r1662" type="CarDefault" departLane="random" />
	<vehicle id="v6224" depart="175" route="sr1179" type="CarDefault" departLane="random" />
	<vehicle id="v6351" depart="176.83" route="sr1179" type="CarDefault" departLane="random" />
	<vehicle id="v7249" depart="177.1" route="r1662" type="CarDefault" departLane="random" />
	<vehicle id="v4889" depart="178.95" route="r1663" type="CarDefault" departLane="random" />
	<vehicle id="v7250" depart="180.32" route="r1662" type="CarDefault" departLane="random" />
	<vehicle id="v4113" depart="180.95" route="r1664" type="CarDefault" departLane="random" />
	<vehicle id="v6352" depart="181.36" route="sr1179" type="CarDefault" departLane="random" />
	<vehicle id="v7251" depart="183.54" route="r1662" type="CarDefault" departLane="random" />
	<vehicle id="v4890" depart="184.21" route="r1663" type="CarDefault" departLane="random" />
	<vehicle id="v6353" depart="185.89" route="sr1179" type="CarDefault" departLane="random" />
	<vehicle id="v7252" depart="186.76" route="r1662" type="CarDefault" departLane="random" />
	<vehicle id="v4891" depart="189.47" route="r1663" type="CarDefault" departLane="random" />
	<vehicle id="v7253" depart="189.98" route="r1662" type="CarDefault" departLane="random" />
	<vehicle id="v6354" depart="190.43" route="sr1179" type="CarDefault" departLane="random" />
	<vehicle id="v4114" depart="190.48" route="r1664" type="CarDefault" departLane="random" />
	<vehicle id="v7254" depart="193.2" route="r1662" type="CarDefault" departLane="random" />
	<vehicle id="v4892" depart="194.74" route="r1663" type="CarDefault" departLane="random" />
	<vehicle id="v6355" depart="194.96" route="sr1179" type="CarDefault" departLane="random" />
	<vehicle id="v6225" depart="195" route="sr1179" type="CarDefault" departLane="random" />
	<vehicle id="v7255" depart="196.42" route="r1662" type="CarDefault" departLane="random" />
	<vehicle id="v6356" depart="199.5" route="sr1179" type="CarDefault" departLane="random" />
	<vehicle id="v7256" depart="199.64" route="r1662" type="CarDefault" departLane="random" />
	<vehicle id="v4115" depart="200.0" route="r1664" type="CarDefault" departLane="random" />
	<vehicle id="v4893" depart="200.0" route="r1663" type="CarDefault" departLane="random" />
	<vehicle id="v7257" depart="202.86" route="r1662" type="CarDefault" departLane="random" />
	<vehicle id="v6357" depart="204.03" route="sr1179" type="CarDefault" departLane="random" />
	<vehicle id="v4894" depart="205.26" route="r1663" type="CarDefault" departLane="random" />
	<vehicle id="v7258" depart="206.08" route="r1662" type="CarDefault" departLane="random" />
	<vehicle id="v6358" depart="208.56" route="sr1179" type="CarDefault" departLane="random" />
	<vehicle id="v7259" depart="209.3" route="r1662" type="CarDefault" departLane="random" />
	<vehicle id="v4116" depart="209.52" route="r1664" type="CarDefault" departLane="random" />
	<vehicle id="v4895" depart="210.53" route="r1663" type="CarDefault" departLane="random" />
	<vehicle id="v7260" depart="212.52" route="r1662" type="CarDefault" departLane="random" />
	<vehicle id="v6359" depart="213.1" route="sr1179" type="CarDefault" departLane="random" />
	<vehicle id="v7261" depart="215.74" route="r1662" type="CarDefault" departLane="random" />
	<vehicle id="v4896" depart="215.79" route="r1663" type="CarDefault" departLane="random" />
	<vehicle id="v6360" depart="217.63" route="sr1179" type="CarDefault" departLane="random" />
	<vehicle id="v7262" depart="218.96" route="r1662" type="CarDefault" departLane="random" />
	<vehicle id="v4117" depart="219.05" route="r1664" type="CarDefault" departLane="random" />
	<vehicle id="v4897" depart="221.05" route="r1663" type="CarDefault" departLane="random" />
	<vehicle id="v6361" depart="222.17" route="sr1179" type="CarDefault" departLane="random" />
	<vehicle id="v7263" depart="222.18" route="r1662" type="CarDefault" departLane="random" />
	<vehicle id="v7264" depart="225.4" route="r1662" type="CarDefault" departLane="random" />
	<vehicle id="v4898" depart="226.32" route="r1663" type="CarDefault" departLane="random" />
	<vehicle id="v6362" depart="226.7" route="sr1179" type="CarDefault" departLane="random" />
	<vehicle id="v7111" depart="228" route="r1662" type="CarDefault" departLane="random" />
	<vehicle id="v4118" depart="228.57" route="r1664" type="CarDefault" departLane="random" />
	<vehicle id="v7265" depart="228.62" route="r1662" type="CarDefault" departLane="random" />
	<vehicle id="v6363" depart="231.23" route="sr1179" type="CarDefault" departLane="random" />
	<vehicle id="v4899" depart="231.58" route="r1663" type="CarDefault" departLane="random" />
	<vehicle id="v7266" depart="231.84" route="r1662" type="CarDefault" departLane="random" />
	<vehicle id="v7267" depart="235.06" route="r1662" type="CarDefault" departLane="random" />
	<vehicle id="v6364" depart="235.77" route="sr1179" type="CarDefault" departLane="random" />
	<vehicle id="v4900" depart="236.84" route="r1663" type="CarDefault" departLane="random" />
	<vehicle id="v4119" depart="238.1" route="r1664" type="CarDefault" departLane="random" />
	<vehicle id="v7268" depart="238.28" route="r1662" type="CarDefault" departLane="random" />
	<vehicle id="v6365" depart="240.3" route="sr1179" type="CarDefault" departLane="random" />
	<vehicle id="v7269" depart="241.5" route="r1662" type="CarDefault" departLane="random" />
	<vehicle id="v4901" depart="242.11" route="r1663" type="CarDefault" departLane="random" />
	<vehicle id="v7270" depart="244.72" route="r1662" type="CarDefault" departLane="random" />
	<vehicle id="v6366" depart="244.84" route="sr1179" type="CarDefault" departLane="random" />
	<vehicle id="v4902" depart="247.37" route="r1663" type="CarDefault" departLane="random" />
	<vehicle id="v4120" depart="247.62" route="r1664" type="CarDefault" departLane="random" />
	<vehicle id="v7271" depart="247.94" route="r1662" type="CarDefault" departLane="random" />
	<vehicle id="v6367" depart="249.37" route="sr1179" type="CarDefault" departLane="random" />
	<vehicle id="v7272" depart="251.16" route="r1662" type="CarDefault" departLane="random" />
	<vehicle id="v4903" depart="252.63" route="r1663" type="CarDefault" departLane="random" />
	<vehicle id="v6368" depart="253.9" route="sr1179" type="CarDefault" departLane="random" />
	<vehicle id="v6226" depart="254" route="sr1179" type="CarDefault" departLane="random" />
	<vehicle id="v7273" depart="254.38" route="r1662" type="CarDefault" departLane="random" />
	<vehicle id="v4121" depart="257.14" route="r1664" type="CarDefault" departLane="random" />
	<vehicle id="v7274" depart="257.6" route="r1662" type="CarDefault" departLane="random" />
	<vehicle id="v4904" depart="257.89" route="r1663" type="CarDefault" departLane="random" />
	<vehicle id="v6369" depart="258.44" route="sr1179" type="CarDefault" departLane="random" />
	<vehicle id="v7275" depart="260.82" route="r1662" type="CarDefault" departLane="random" />
	<vehicle id="v6370" depart="262.97" route="sr1179" type="CarDefault" departLane="random" />
	<vehicle id="v4905" depart="263.16" route="r1663" type="CarDefault" departLane="random" />
	<vehicle id="v7276" depart="264.04" route="r1662" type="CarDefault" departLane="random" />
	<vehicle id="v4122" depart="266.67" route="r1664" type="CarDefault" departLane="random" />
	<vehicle id="v7277" depart="267.26" route="r1662" type="CarDefault" departLane="random" />
	<vehicle id="v6371" depart="267.51" route="sr1179" type="CarDefault" departLane="random" />
	<vehicle id="v4906" depart="268.42" route="r1663" type="CarDefault" departLane="random" />
	<vehicle id="v7278" depart="270.48" route="r1662" type="CarDefault" departLane="random" />
	<vehicle id="v7112" depart="271" route="r1662" type="CarDefault" departLane="random" />
	<vehicle id="v6372" depart="272.04" route="sr1179" type="CarDefault" departLane="random" />
	<vehicle id="v4907" depart="273.68" route="r1663" type="CarDefault" departLane="random" />
	<vehicle id="v7279" depart="273.7" route="r1662" type="CarDefault" departLane="random" />
	<vehicle id="v4123" depart="276.19" route="r1664" type="CarDefault" departLane="random" />
	<vehicle id="v6373" depart="276.57" route="sr1179" type="CarDefault" departLane="random" />
	<vehicle id="v7280" depart="276.92" route="r1662" type="CarDefault" departLane="random" />
	<vehicle id="v4908" depart="278.95" route="r1663" type="CarDefault" departLane="random" />
	<vehicle id="v7281" depart="280.14" route="r1662" type="CarDefault" departLane="random" />
	<vehicle id="v6374" depart="281.11" route="sr1179" type="CarDefault" departLane="random" />
	<vehicle id="v7282" depart="283.36" route="r1662" type="CarDefault" departLane="random" />
	<vehicle id="v4909" depart="284.21" route="r1663" type="CarDefault" departLane="random" />
	<vehicle id="v6375" depart="285.64" route="sr1179" type="CarDefault" departLane="random" />
	<vehicle id="v4124" depart="285.71" route="r1664" type="CarDefault" departLane="random" />
	<vehicle id="v7283" depart="286.58" route="r1662" type="CarDefault" departLane="random" />
	<vehicle id="v4910" depart="289.47" route="r1663" type="CarDefault" departLane="random" />
	<vehicle id="v7284" depart="289.8" route="r1662" type="CarDefault" departLane="random" />
	<vehicle id="v6376" depart="290.18" route="sr1179" type="CarDefault" departLane="random" />
	<vehicle id="v7285" depart="293.02" route="r1662" type="CarDefault" departLane="random" />
	<vehicle id="v6227" depart="294" route="sr1179" type="CarDefault" departLane="random" />
	<vehicle id="v6377" depart="294.71" route="sr1179" type="CarDefault" departLane="random" />
	<vehicle id="v4911" depart="294.74" route="r1663" type="CarDefault" departLane="random" />
	<vehicle id="v4125" depart="295.24" route="r1664" type="CarDefault" departLane="random" />
	<vehicle id="v7286" depart="296.24" route="r1662" type="CarDefault" departLane="random" />
	<vehicle id="v6378" depart="299.24" route="sr1179" type="CarDefault" departLane="random" />
	<vehicle id="v7287" depart="299.46" route="r1662" type="CarDefault" departLane="random" />
	<vehicle id="v4912" depart="300.0" route="r1663" type="CarDefault" departLane="random" />
	<vehicle id="v7288" depart="302.68" route="r1662" type="CarDefault" departLane="random" />
	<vehicle id="v6379" depart="303.78" route="sr1179" type="CarDefault" departLane="random" />
	<vehicle id="v4126" depart="304.76" route="r1664" type="CarDefault" departLane="random" />
	<vehicle id="v4913" depart="305.26" route="r1663" type="CarDefault" departLane="random" />
	<vehicle id="v7289" depart="305.9" route="r1662" type="CarDefault" departLane="random" />
	<vehicle id="v6380" depart="308.31" route="sr1179" type="CarDefault" departLane="random" />
	<vehicle id="v7290" depart="309.12" route="r1662" type="CarDefault" departLane="random" />
	<vehicle id="v4914" depart="310.53" route="r1663" type="CarDefault" departLane="random" />
	<vehicle id="v7291" depart="312.34" route="r1662" type="CarDefault" departLane="random" />
	<vehicle id="v6381" depart="312.85" route="sr1179" type="CarDefault" departLane="random" />
	<vehicle id="v4127" depart="314.29" route="r1664" type="CarDefault" departLane="random" />
	<vehicle id="v7292" depart="315.56" route="r1662" type="CarDefault" departLane="random" />
	<vehicle id="v4915" depart="315.79" route="r1663" type="CarDefault" departLane="random" />
	<vehicle id="v6382" depart="317.38" route="sr1179" type="CarDefault" departLane="random" />
	<vehicle id="v7293" depart="318.78" route="r1662" type="CarDefault" departLane="random" />
	<vehicle id="v7113" depart="320" route="r1662" type="CarDefault" departLane="random" />
	<vehicle id="v4916" depart="321.05" route="r1663" type="CarDefault" departLane="random" />
	<vehicle id="v6383" depart="321.91" route="sr1179" type="CarDefault" departLane="random" />
	<vehicle id="v7294" depart="322.0" route="r1662" type="CarDefault" departLane="random" />
	<vehicle id="v4128" depart="323.81" route="r1664" type="CarDefault" departLane="random" />
	<vehicle id="v7295" depart="325.22" route="r1662" type="CarDefault" departLane="random" />
	<vehicle id="v4917" depart="326.32" route="r1663" type="CarDefault" departLane="random" />
	<vehicle id="v6384" depart="326.45" route="sr1179" type="CarDefault" departLane="random" />
	<vehicle id="v7296" depart="328.44" route="r1662" type="CarDefault" departLane="random" />
	<vehicle id="v6385" depart="330.98" route="sr1179" type="CarDefault" departLane="random" />
	<vehicle id="v6228" depart="331" route="sr1179" type="CarDefault" departLane="random" />
	<vehicle id="v4918" depart="331.58" route="r1663" type="CarDefault" departLane="random" />
	<vehicle id="v7297" depart="331.66" route="r1662" type="CarDefault" departLane="random" />
	<vehicle id="v4129" depart="333.33" route="r1664" type="CarDefault" departLane="random" />
	<vehicle id="v7298" depart="334.88" route="r1662" type="CarDefault" departLane="random" />
	<vehicle id="v6386" depart="335.52" route="sr1179" type="CarDefault" departLane="random" />
	<vehicle id="v4919" depart="336.84" route="r1663" type="CarDefault" departLane="random" />
	<vehicle id="v7299" depart="338.1" route="r1662" type="CarDefault" departLane="random" />
	<vehicle id="v6387" depart="340.05" route="sr1179" type="CarDefault" departLane="random" />
	<vehicle id="v7300" depart="341.32" route="r1662" type="CarDefault" departLane="random" />
	<vehicle id="v4920" depart="342.11" route="r1663" type="CarDefault" departLane="random" />
	<vehicle id="v4130" depart="342.86" route="r1664" type="CarDefault" departLane="random" />
	<vehicle id="v6229" depart="344" route="sr1179" type="CarDefault" departLane="random" />
	<vehicle id="v7301" depart="344.54" route="r1662" type="CarDefault" departLane="random" />
	<vehicle id="v6388" depart="344.58" route="sr1179" type="CarDefault" departLane="random" />
	<vehicle id="v7114" depart="346" route="r1662" type="CarDefault" departLane="random" />
	<vehicle id="v4921" depart="347.37" route="r1663" type="CarDefault" departLane="random" />
	<vehicle id="v7302" depart="347.76" route="r1662" type="CarDefault" departLane="random" />
	<vehicle id="v6389" depart="349.12" route="sr1179" type="CarDefault" departLane="random" />
	<vehicle id="v7303" depart="350.98" route="r1662" type="CarDefault" departLane="random" />
	<vehicle id="v4131" depart="352.38" route="r1664" type="CarDefault" departLane="random" />
	<vehicle id="v4922" depart="352.63" route="r1663" type="CarDefault" departLane="random" />
	<vehicle id="v6390" depart="353.65" route="sr1179" type="CarDefault" departLane="random" />
	<vehicle id="v7304" depart="354.2" route="r1662" type="CarDefault" departLane="random" />
	<vehicle id="v7305" depart="357.42" route="r1662" type="CarDefault" departLane="random" />
	<vehicle id="v4923" depart="357.89" route="r1663" type="CarDefault" departLane="random" />
	<vehicle id="v6391" depart="358.19" route="sr1179" type="CarDefault" departLane="random" />