<?xml version='1.0' encoding='utf-8'?>
<routes>
	<vType accel="3.0" decel="6.0" id="CarDefault" length="5.0" minGap="2.5" maxSpeed="50.0" sigma="0.5" />
	<route id="sr458" edges="135 56 111 110 335 336 337 338 63 339 95 251 364 365 366 367 368 348 141 431 255" fromJunction="117" toJunction="154" />
	<route id="sr459" edges="226 227 228 116 359 300 301 124 30 29 397 398 399 400 401 237 0" fromJunction="127" toJunction="117" />
	<route id="sr460" edges="62 129 61 6 5 161 162 361 163 164 38 134 116 115 114 113 112 74 73 72 71 70 69 68" fromJunction="154" toJunction="42" />
	<vehicle id="v88" depart="0.0" route="sr458" type="CarDefault" departLane="random" />
	<vehicle id="v841" depart="0.0" route="sr459" type="CarDefault" departLane="random" />
	<vehicle id="v1609" depart="0.0" route="sr460" type="CarDefault" departLane="random" />
	<vehicle id="v842" depart="5.29" route="sr459" type="CarDefault" departLane="random" />
	<vehicle id="v89" depart="5.42" route="sr458" type="CarDefault" departLane="random" />
	<vehicle id="v1610" depart="5.56" route="sr460" type="CarDefault" departLane="random" />
	<vehicle id="v843" depart="10.57" route="sr459" type="CarDefault" departLane="random" />
	<vehicle id="v90" depart="10.84" route="sr458" type="CarDefault" departLane="random" />
	<vehicle id="v1611" depart="11.13" route="sr460" type="CarDefault" departLane="random" />
	<vehicle id="v0" depart="13" route="sr458" type="CarDefault" departLane="random" />
	<vehicle id="v844" depart="15.86" route="sr459" type="CarDefault" departLane="random" />
	<vehicle id="v91" depart="16.27" route="sr458" type="CarDefault" departLane="random" />
	<vehicle id="v1612" depart="16.69" route="sr460" type="CarDefault" departLane="random" />
	<vehicle id="v845" depart="21.15" route="sr459" type="CarDefault" departLane="random" />
	<vehicle id="v92" depart="21.69" route="sr458" type="CarDefault" departLane="random" />
	<vehicle id="v1613" depart="22.26" route="sr460" type="CarDefault" departLane="random" />
	<vehicle id="v1" depart="24" route="sr458" type="CarDefault" departLane="random" />
	<vehicle id="v846" depart="26.43" route="sr459" type="CarDefault" departLane="random" />
	<vehicle id="v93" depart="27.11" route="sr458" type="CarDefault" departLane="random" />
	<vehicle id="v1614" depart="27.82" route="sr460" type="CarDefault" departLane="random" />
	<vehicle id="v847" depart="31.72" route="sr459" type="CarDefault" departLane="random" />
	<vehicle id="v94" depart="32.53" route="sr458" type="CarDefault" departLane="random" />
	<vehicle id="v753" depart="33" route="sr459" type="CarDefault" departLane="random" />
	<vehicle id="v1615" depart="33.38" route="sr460" type="CarDefault" departLane="random" />
	<vehicle id="v848" depart="37.0" route="sr459" type="CarDefault" departLane="random" />
	<vehicle id="v95" depart="37.95" route="sr458" type="CarDefault" departLane="random" />
	<vehicle id="v1616" depart="38.95" route="sr460" type="CarDefault" departLane="random" />
	<vehicle id="v849" depart="42.29" route="sr459" type="CarDefault" departLane="random" />
	<vehicle id="v96" depart="43.37" route="sr458" type="CarDefault" departLane="random" />
	<vehicle id="v1617" depart="44.51" route="sr460" type="CarDefault" departLane="random" />
	<vehicle id="v850" depart="47.58" route="sr459" type="CarDefault" departLane="random" />
	<vehicle id="v97" depart="48.8" route="sr458" type="CarDefault" departLane="random" />
	<vehicle id="v1618" depart="50.08" route="sr460" type="CarDefault" departLane="random" />
	<vehicle id="v851" depart="52.86" route="sr459" type="CarDefault" departLane="random" />
	<vehicle id="v98" depart="54.22" route="sr458" type="CarDefault" departLane="random" />
	<vehicle id="v1619" depart="55.64" route="sr460" type="CarDefault" departLane="random" />
	<vehicle id="v852" depart="58.15" route="sr459" type="CarDefault" departLane="random" />
	<vehicle id="v99" depart="59.64" route="sr458" type="CarDefault" departLane="random" />
	<vehicle id="v1620" depart="61.21" route="sr460" type="CarDefault" departLane="random" />
	<vehicle id="v853" depart="63.44" route="sr459" type="CarDefault" departLane="random" />
	<vehicle id="v100" depart="65.06" route="sr458" type="CarDefault" departLane="random" />
	<vehicle id="v1621" depart="66.77" route="sr460" type="CarDefault" departLane="random" />
	<vehicle id="v854" depart="68.72" route="sr459" type="CarDefault" departLane="random" />
	<vehicle id="v101" depart="70.48" route="sr458" type="CarDefault" departLane="random" />
	<vehicle id="v1622" depart="72.33" route="sr460" type="CarDefault" departLane="random" />
	<vehicle id="v855" depart="74.01" route="sr459" type="CarDefault" departLane="random" />
	<vehicle id="v1523" depart="75" route="sr460" type="CarDefault" departLane="random" />
	<vehicle id="v102" depart="75.9" route="sr458" type="CarDefault" departLane="random" />
	<vehicle id="v2" depart="77" route="sr458" type="CarDefault" departLane="random" />
	<vehicle id="v1623" depart="77.9" route="sr460" type="CarDefault" departLane="random" />
	<vehicle id="v856" depart="79.3" route="sr459" type="CarDefault" departLane="random" />
	<vehicle id="v103" depart="81.33" route="sr458" type="CarDefault" departLane="random" />
	<vehicle id="v1624" depart="83.46" route="sr460" type="CarDefault" departLane="random" />
	<vehicle id="v857" depart="84.58" route="sr459" type="CarDefault" departLane="random" />
	<vehicle id="v104" depart="86.75" route="sr458" type="CarDefault" departLane="random" />
	<vehicle id="v1524" depart="87" route="sr460" type="CarDefault" departLane="random" />
	<vehicle id="v1625" depart="89.03" route="sr460" type="CarDefault" departLane="random" />
	<vehicle id="v858" depart="89.87" route="sr459" type="CarDefault" departLane="random" />
	<vehicle id="v105" depart="92.17" route="sr458" type="CarDefault" departLane="random" />
	<vehicle id="v1626" depart="94.59" route="sr460" type="CarDefault" departLane="random" />
	<vehicle id="v859" depart="95.15" route="sr459" type="CarDefault" departLane="random" />
	<vehicle id="v106" depart="97.59" route="sr458" type="CarDefault" departLane="random" />
	<vehicle id="v1627" depart="100.15" route="sr460" type="CarDefault" departLane="random" />
	<vehicle id="v860" depart="100.44" route="sr459" type="CarDefault" departLane="random" />
	<vehicle id="v107" depart="103.01" route="sr458" type="CarDefault" departLane="random" />
	<vehicle id="v1628" depart="105.72" route="sr460" type="CarDefault" departLane="random" />
	<vehicle id="v861" depart="105.73" route="sr459" type="CarDefault" departLane="random" />
	<vehicle id="v108" depart="108.43" route="sr458" type="CarDefault" departLane="random" />
	<vehicle id="v862" depart="111.01" route="sr459" type="CarDefault" departLane="random" />
	<vehicle id="v1629" depart="111.28" route="sr460" type="CarDefault" departLane="random" />
	<vehicle id="v109" depart="113.86" route="sr458" type="CarDefault" departLane="random" />
	<vehicle id="v863" depart="116.3" route="sr459" type="CarDefault" departLane="random" />
	<vehicle id="v1630" depart="116.85" route="sr460" type="CarDefault" departLane="random" />
	<vehicle id="v110" depart="119.28" route="sr458" type="CarDefault" departLane="random" />
	<vehicle id="v864" depart="121.59" route="sr459" type="CarDefault" departLane="random" />
	<vehicle id="v1631" depart="122.41" route="sr460" type="CarDefault" departLane="random" />
	<vehicle id="v111" depart="124.7" route="sr458" type="CarDefault" departLane="random" />
	<vehicle id="v754" depart="125" route="sr459" type="CarDefault" departLane="random" />
	<vehicle id="v865" depart="126.87" route="sr459" type="CarDefault" departLane="random" />
	<vehicle id="v1632" depart="127.98" route="sr460" type="CarDefault" departLane="random" />
	<vehicle id="v112" depart="130.12" route="sr458" type="CarDefault" departLane="random" />
	<vehicle id="v866" depart="132.16" route="sr459" type="CarDefault" departLane="random" />
	<vehicle id="v1633" depart="133.54" route="sr460" type="CarDefault" departLane="random" />
	<vehicle id="v113" depart="135.54" route="sr458" type="CarDefault" departLane="random" />
	<vehicle id="v1525" depart="136" route="sr460" type="CarDefault" departLane="random" />
	<vehicle id="v867" depart="137.44" route="sr459" type="CarDefault" departLane="random" />
	<vehicle id="v1634" depart="139.1" route="sr460" type="CarDefault" departLane="random" />
	<vehicle id="v114" depart="140.96" route="sr458" type="CarDefault" departLane="random" />
	<vehicle id="v868" depart="142.73" route="sr459" type="CarDefault" departLane="random" />
	<vehicle id="v1635" depart="144.67" route="sr460" type="CarDefault" departLane="random" />
	<vehicle id="v115" depart="146.39" route="sr458" type="CarDefault" departLane="random" />
	<vehicle id="v869" depart="148.02" route="sr459" type="CarDefault" departLane="random" />
	<vehicle id="v1636" depart="150.23" route="sr460" type="CarDefault" departLane="random" />
	<vehicle id="v116" depart="151.81" route="sr458" type="CarDefault" departLane="random" />
	<vehicle id="v3" depart="153" route="sr458" type="CarDefault" departLane="random" />
	<vehicle id="v870" depart="153.3" route="sr459" type="CarDefault" departLane="random" />
	<vehicle id="v1637" depart="155.8" route="sr460" type="CarDefault" departLane="random" />
	<vehicle id="v117" depart="157.23" route="sr458" type="CarDefault" departLane="random" />
	<vehicle id="v871" depart="158.59" route="sr459" type="CarDefault" departLane="random" />
	<vehicle id="v1526" depart="159" route="sr460" type="CarDefault" departLane="random" />
	<vehicle id="v1638" depart="161.36" route="sr460" type="CarDefault" departLane="random" />
	<vehicle id="v118" depart="162.65" route="sr458" type="CarDefault" departLane="random" />
	<vehicle id="v872" depart="163.88" route="sr459" type="CarDefault" departLane="random" />
	<vehicle id="v1639" depart="166.92" route="sr460" type="CarDefault" departLane="random" />
	<vehicle id="v119" depart="168.07" route="sr458" type="CarDefault" departLane="random" />
	<vehicle id="v873" depart="169.16" route="sr459" type="CarDefault" departLane="random" />
	<vehicle id="v1640" depart="172.49" route="sr460" type="CarDefault" departLane="random" />
	<vehicle id="v1527" depart="173" route="sr460" type="CarDefault" departLane="random" />
	<vehicle id="v120" depart="173.49" route="sr458" type="CarDefault" departLane="random" />
	<vehicle id="v874" depart="174.45" route="sr459" type="CarDefault" departLane="random" />
	<vehicle id="v1641" depart="178.05" route="sr460" type="CarDefault" departLane="random" />
	<vehicle id="v121" depart="178.92" route="sr458" type="CarDefault" departLane="random" />
	<vehicle id="v875" depart="179.74" route="sr459" type="CarDefault" departLane="random" />
	<vehicle id="v1642" depart="183.62" route="sr460" type="CarDefault" departLane="random" />
	<vehicle id="v122" depart="184.34" route="sr458" type="CarDefault" departLane="random" />
	<vehicle id="v876" depart="185.02" route="sr459" type="CarDefault" departLane="random" />
	<vehicle id="v1643" depart="189.18" route="sr460" type="CarDefault" departLane="random" />
	<vehicle id="v123" depart="189.76" route="sr458" type="CarDefault" departLane="random" />
	<vehicle id="v755" depart="190" route="sr459" type="CarDefault" departLane="random" />
	<vehicle id="v877" depart="190.31" route="sr459" type="CarDefault" departLane="random" />
	<vehicle id="v1644" depart="194.74" route="sr460" type="CarDefault" departLane="random" />
	<vehicle id="v124" depart="195.18" route="sr458" type="CarDefault" departLane="random" />
	<vehicle id="v878" depart="195.59" route="sr459" type="CarDefault" departLane="random" />
	<vehicle id="v1645" depart="200.31" route="sr460" type="CarDefault" departLane="random" />
	<vehicle id="v125" depart="200.6" route="sr458" type="CarDefault" departLane="random" />
	<vehicle id="v879" depart="200.88" route="sr459" type="CarDefault" departLane="random" />
	<vehicle id="v1646" depart="205.87" route="sr460" type="CarDefault" departLane="random" />
	<vehicle id="v126" depart="206.02" route="sr458" type="CarDefault" departLane="random" />
	<vehicle id="v880" depart="206.17" route="sr459" type="CarDefault" departLane="random" />
	<vehicle id="v1647" depart="211.44" route="sr460" type="CarDefault" departLane="random" />
	<vehicle id="v127" depart="211.45" route="sr458" type="CarDefault" departLane="random" />
	<vehicle id="v881" depart="211.45" route="sr459" type="CarDefault" departLane="random" />
	<vehicle id="v756" depart="212" route="sr459" type="CarDefault" departLane="random" />
	<vehicle id="v882" depart="216.74" route="sr459" type="CarDefault" departLane="random" />
	<vehicle id="v128" depart="216.87" route="sr458" type="CarDefault" departLane="random" />
	<vehicle id="v1648" depart="217.0" route="sr460" type="CarDefault" departLane="random" />
	<vehicle id="v883" depart="222.03" route="sr459" type="CarDefault" departLane="random" />
	<vehicle id="v129" depart="222.29" route="sr458" type="CarDefault" departLane="random" />
	<vehicle id="v1649" depart="222.57" route="sr460" type="CarDefault" departLane="random" />
	<vehicle id="v4" depart="225" route="sr458" type="CarDefault" departLane="random" />
	<vehicle id="v884" depart="227.31" route="sr459" type="CarDefault" departLane="random" />
	<vehicle id="v130" depart="227.71" route="sr458" type="CarDefault" departLane="random" />
	<vehicle id="v1650" depart="228.13" route="sr460" type="CarDefault" departLane="random" />
	<vehicle id="v1528" depart="230" route="sr460" type="CarDefault" departLane="random" />
	<vehicle id="v885" depart="232.6" route="sr459" type="CarDefault" departLane="random" />
	<vehicle id="v131" depart="233.13" route="sr458" type="CarDefault" departLane="random" />
	<vehicle id="v1651" depart="233.69" route="sr460" type="CarDefault" departLane="random" />
	<vehicle id="v886" depart="237.89" route="sr459" type="CarDefault" departLane="random" />
	<vehicle id="v757" depart="238" route="sr459" type="CarDefault" departLane="random" />
	<vehicle id="v132" depart="238.55" route="sr458" type="CarDefault" departLane="random" />
	<vehicle id="v1652" depart="239.26" route="sr460" type="CarDefault" departLane="random" />
	<vehicle id="v758" depart="240" route="sr459" type="CarDefault" departLane="random" />
	<vehicle id="v887" depart="243.17" route="sr459" type="CarDefault" departLane="random" />
	<vehicle id="v133" depart="243.98" route="sr458" type="CarDefault" departLane="random" />
	<vehicle id="v1653" depart="244.82" route="sr460" type="CarDefault" departLane="random" />
	<vehicle id="v888" depart="248.46" route="sr459" type="CarDefault" departLane="random" />
	<vehicle id="v134" depart="249.4" route="sr458" type="CarDefault" departLane="random" />
	<vehicle id="v1654" depart="250.39" route="sr460" type="CarDefault" departLane="random" />
	<vehicle id="v889" depart="253.74" route="sr459" type="CarDefault" departLane="random" />
	<vehicle id="v135" depart="254.82" route="sr458" type="CarDefault" departLane="random" />
	<vehicle id="v1655" depart="255.95" route="sr460" type="CarDefault" departLane="random" />
	<vehicle id="v5" depart="257" route="sr458" type="CarDefault" departLane="random" />
	<vehicle id="v890" depart="259.03" route="sr459" type="CarDefault" departLane="random" />
	<vehicle id="v136" depart="260.24" route="sr458" type="CarDefault" departLane="random" />
	<vehicle id="v1656" depart="261.51" route="sr460" type="CarDefault" departLane="random" />
	<vehicle id="v891" depart="264.32" route="sr459" type="CarDefault" departLane="random" />
	<vehicle id="v137" depart="265.66" route="sr458" type="CarDefault" departLane="random" />
	<vehicle id="v1657" depart="267.08" route="sr460" type="CarDefault" departLane="random" />
	<vehicle id="v892" depart="269.6" route="sr459" type="CarDefault" departLane="random" />
	<vehicle id="v138" depart="271.08" route="sr458" type="CarDefault" departLane="random" />
	<vehicle id="v1658" depart="272.64" route="sr460" type="CarDefault" departLane="random" />
	<vehicle id="v893" depart="274.89" route="sr459" type="CarDefault" departLane="random" />
	<vehicle id="v139" depart="276.51" route="sr458" type="CarDefault" departLane="random" />
	<vehicle id="v1659" depart="278.21" route="sr460" type="CarDefault" departLane="random" />
	<vehicle id="v894" depart="280.18" route="sr459" type="CarDefault" departLane="random" />
	<vehicle id="v140" depart="281.93" route="sr458" type="CarDefault" departLane="random" />
	<vehicle id="v1660" depart="283.77" route="sr460" type="CarDefault" departLane="random" />
	<vehicle id="v895" depart="285.46" route="sr459" type="CarDefault" departLane="random" />
	<vehicle id="v141" depart="287.35" route="sr458" type="CarDefault" departLane="random" />
	<vehicle id="v759" depart="288" route="sr459" type="CarDefault" departLane="random" />
	<vehicle id="v1661" depart="289.34" route="sr460" type="CarDefault" departLane="random" />
	<vehicle id="v896" depart="290.75" route="sr459" type="CarDefault" departLane="random" />
	<vehicle id="v142" depart="292.77" route="sr458" type="CarDefault" departLane="random" />
	<vehicle id="v6" depart="294" route="sr458" type="CarDefault" departLane="random" />
	<vehicle id="v1662" depart="294.9" route="sr460" type="CarDefault" departLane="random" />
	<vehicle id="v897" depart="296.04" route="sr459" type="CarDefault" departLane="random" />
	<vehicle id="v143" depart="298.19" route="sr458" type="CarDefault" departLane="random" />
	<vehicle id="v7" depart="300" route="sr458" type="CarDefault" departLane="random" />
	<vehicle id="v1663" depart="300.46" route="sr460" type="CarDefault" departLane="random" />
	<vehicle id="v898" depart="301.32" route="sr459" type="CarDefault" departLane="random" />
	<vehicle id="v144" depart="303.61" route="sr458" type="CarDefault" departLane="random" />
	<vehicle id="v1664" depart="306.03" route="sr460" type="CarDefault" departLane="random" />
	<vehicle id="v899" depart="306.61" route="sr459" type="CarDefault" departLane="random" />
	<vehicle id="v145" depart="309.04" route="sr458" type="CarDefault" departLane="random" />
	<vehicle id="v760" depart="310" route="sr459" type="CarDefault" departLane="random" />
	<vehicle id="v1665" depart="311.59" route="sr460" type="CarDefault" departLane="random" />
	<vehicle id="v900" depart="311.89" route="sr459" type="CarDefault" departLane="random" />
	<vehicle id="v146" depart="314.46" route="sr458" type="CarDefault" departLane="random" />
	<vehicle id="v1666" depart="317.16" route="sr460" type="CarDefault" departLane="random" />
	<vehicle id="v901" depart="317.18" route="sr459" type="CarDefault" departLane="random" />
	<vehicle id="v147" depart="319.88" route="sr458" type="CarDefault" departLane="random" />
	<vehicle id="v902" depart="322.47" route="sr459" type="CarDefault" departLane="random" />
	<vehicle id="v1667" depart="322.72" route="sr460" type="CarDefault" departLane="random" />
	<vehicle id="v148" depart="325.3" route="sr458" type="CarDefault" departLane="random" />
	<vehicle id="v903" depart="327.75" route="sr459" type="CarDefault" departLane="random" />
	<vehicle id="v1668" depart="328.28" route="sr460" type="CarDefault" departLane="random" />
	<vehicle id="v149" depart="330.72" route="sr458" type="CarDefault" departLane="random" />
	<vehicle id="v904" depart="333.04" route="sr459" type="CarDefault" departLane="random" />
	<vehicle id="v1669" depart="333.85" route="sr460" type="CarDefault" departLane="random" />
	<vehicle id="v150" depart="336.14" route="sr458" type="CarDefault" departLane="random" />
	<vehicle id="v905" depart="338.33" route="sr459" type="CarDefault" departLane="random" />
	<vehicle id="v1670" depart="339.41" route="sr460" type="CarDefault" departLane="random" />
	<vehicle id="v151" depart="341.57" route="sr458" type="CarDefault" departLane="random" />
	<vehicle id="v906" depart="343.61" route="sr459" type="CarDefault" departLane="random" />
	<vehicle id="v1671" depart="344.98" route="sr460" type="CarDefault" departLane="random" />
	<vehicle id="v152" depart="346.99" route="sr458" type="CarDefault" departLane="random" />
	<vehicle id="v8" depart="347" route="sr458" type="CarDefault" departLane="random" />
	<vehicle id="v907" depart="348.9" route="sr459" type="CarDefault" departLane="random" />
	<vehicle id="v1672" depart="350.54" route="sr460" type="CarDefault" departLane="random" />
	<vehicle id="v153" depart="352.41" route="sr458" type="CarDefault" departLane="random" />
	<vehicle id="v908" depart="354.19" route="sr459" type="CarDefault" departLane="random" />
	<vehicle id="v1673" depart="356.11" route="sr460" type="CarDefault" departLane="random" />
	<vehicle id="v154" depart="357.83" route="sr458" type="CarDefault" departLane="random" />
	<vehicle id="v909" depart="359.47" route="sr459" type="CarDefault" departLane="random" />
	<vehicle id="v1674" depart="361.67" route="sr460" type="CarDefault" departLane="random" />
	<vehicle id="v155" depart="363.25" route="sr458" type="CarDefault" departLane="random" />
	<vehicle id="v910" depart="364.76" route="sr459" type="CarDefault" departLane="random" />
	<vehicle id="v9" depart="366" route="sr458" type="CarDefault" departLane="random" />
	<vehicle id="v1675" depart="367.23" route="sr460" type="CarDefault" departLane="random" />
	<vehicle id="v156" depart="368.67" route="sr458" type="CarDefault" departLane="random" />
	<vehicle id="v911" depart="370.04" route="sr459" type="CarDefault" departLane="random" />
	<vehicle id="v1676" depart="372.8" route="sr460" type="CarDefault" departLane="random" />
	<vehicle id="v157" depart="374.1" route="sr458" type="CarDefault" departLane="random" />
	<vehicle id="v912" depart="375.33" route="sr459" type="CarDefault" departLane="random" />
	<vehicle id="v1677" depart="378.36" route="sr460" type="CarDefault" departLane="random" />
	<vehicle id="v158" depart="379.52" route="sr458" type="CarDefault" departLane="random" />
	<vehicle id="v913" depart="380.62" route="sr459" type="CarDefault" departLane="random" />
	<vehicle id="v1529" depart="382" route="sr460" type="CarDefault" departLane="random" />
	<vehicle id="v1678" depart="383.93" route="sr460" type="CarDefault" departLane="random" />
	<vehicle id="v159" depart="384.94" route="sr458" type="CarDefault" departLane="random" />
	<vehicle id="v10" depart="385" route="sr458" type="CarDefault" departLane="random" />
	<vehicle id="v914" depart="385.9" route="sr459" type="CarDefault" departLane="random" />
	<vehicle id="v1679" depart="389.49" route="sr460" type="CarDefault" departLane="random" />
	<vehicle id="v160" depart="390.36" route="sr458" type="CarDefault" departLane="random" />
	<vehicle id="v915" depart="391.19" route="sr459" type="CarDefault" departLane="random" />
	<vehicle id="v761" depart="393" route="sr459" type="CarDefault" departLane="random" />
	<vehicle id="v1680" depart="395.05" route="sr460" type="CarDefault" departLane="random" />
	<vehicle id="v161" depart="395.78" route="sr458" type="CarDefault" departLane="random" />
	<vehicle id="v916" depart="396.48" route="sr459" type="CarDefault" departLane="random" />
	<vehicle id="v1681" depart="400.62" route="sr460" type="CarDefault" departLane="random" />
	<vehicle id="v162" depart="401.2" route="sr458" type="CarDefault" departLane="random" />
	<vehicle id="v917" depart="401.76" route="sr459" type="CarDefault" departLane="random" />
	<vehicle id="v1682" depart="406.18" route="sr460" type="CarDefault" departLane="random" />
	<vehicle id="v163" depart="406.63" route="sr458" type="CarDefault" departLane="random" />
	<vehicle id="v918" depart="407.05" route="sr459" type="CarDefault" departLane="random" />
	<vehicle id="v762" depart="408" route="sr459" type="CarDefault" departLane="random" />
	<vehicle id="v1683" depart="411.75" route="sr460" type="CarDefault" departLane="random" />
	<vehicle id="v164" depart="412.05" route="sr458" type="CarDefault" departLane="random" />
	<vehicle id="v919" depart="412.33" route="sr459" type="CarDefault" departLane="random" />
	<vehicle id="v1684" depart="417.31" route="sr460" type="CarDefault" departLane="random" />
	<vehicle id="v165" depart="417.47" route="sr458" type="CarDefault" departLane="random" />
	<vehicle id="v920" depart="417.62" route="sr459" type="CarDefault" departLane="random" />
	<vehicle id="v11" depart="421" route="sr458" type="CarDefault" departLane="random" />
	<vehicle id="v763" depart="421" route="sr459" type="CarDefault" departLane="random" />
	<vehicle id="v1685" depart="422.87" route="sr460" type="CarDefault" departLane="random" />
	<vehicle id="v166" depart="422.89" route="sr458" type="CarDefault" departLane="random" />
	<vehicle id="v921" depart="422.91" route="sr459" type="CarDefault" departLane="random" />
	<vehicle id="v922" depart="428.19" route="sr459" type="CarDefault" departLane="random" />
	<vehicle id="v167" depart="428.31" route="sr458" type="CarDefault" departLane="random" />
	<vehicle id="v1686" depart="428.44" route="sr460" type="CarDefault" departLane="random" />
	<vehicle id="v923" depart="433.48" route="sr459" type="CarDefault" departLane="random" />
	<vehicle id="v168" depart="433.73" route="sr458" type="CarDefault" departLane="random" />
	<vehicle id="v1687" depart="434.0" route="sr460" type="CarDefault" departLane="random" />
	<vehicle id="v924" depart="438.77" route="sr459" type="CarDefault" departLane="random" />
	<vehicle id="v169" depart="439.16" route="sr458" type="CarDefault" departLane="random" />
	<vehicle id="v1688" depart="439.57" route="sr460" type="CarDefault" departLane="random" />
	<vehicle id="v764" depart="444" route="sr459" type="CarDefault" departLane="random" />
	<vehicle id="v925" depart="444.05" route="sr459" type="CarDefault" departLane="random" />
	<vehicle id="v170" depart="444.58" route="sr458" type="CarDefault" departLane="random" />
	<vehicle id="v1689" depart="445.13" route="sr460" type="CarDefault" departLane="random" />
	<vehicle id="v926" depart="449.34" route="sr459" type="CarDefault" departLane="random" />
	<vehicle id="v171" depart="450.0" route="sr458" type="CarDefault" departLane="random" />
	<vehicle id="v1690" depart="450.7" route="sr460" type="CarDefault" departLane="random" />
	<vehicle id="v1530" depart="451" route="sr460" type="CarDefault" departLane="random" />
	<vehicle id="v927" depart="454.63" route="sr459" type="CarDefault" departLane="random" />
	<vehicle id="v172" depart="455.42" route="sr458" type="CarDefault" departLane="random" />
	<vehicle id="v1691" depart="456.26" route="sr460" type="CarDefault" departLane="random" />
	<vehicle id="v928" depart="459.91" route="sr459" type="CarDefault" departLane="random" />
	<vehicle id="v173" depart="460.84" route="sr458" type="CarDefault" departLane="random" />
	<vehicle id="v1692" depart="461.82" route="sr460" type="CarDefault" departLane="random" />
	<vehicle id="v929" depart="465.2" route="sr459" type="CarDefault" departLane="random" />
	<vehicle id="v174" depart="466.27" route="sr458" type="CarDefault" departLane="random" />
	<vehicle id="v1693" depart="467.39" route="sr460" type="CarDefault" departLane="random" />
	<vehicle id="v930" depart="470.48" route="sr459" type="CarDefault" departLane="random" />
	<vehicle id="v12" depart="471" route="sr458" type="CarDefault" departLane="random" />
	<vehicle id="v175" depart="471.69" route="sr458" type="CarDefault" departLane="random" />
	<vehicle id="v1694" depart="472.95" route="sr460" type="CarDefault" departLane="random" />
	<vehicle id="v1531" depart="473" route="sr460" type="CarDefault" departLane="random" />
	<vehicle id="v931" depart="475.77" route="sr459" type="CarDefault" departLane="random" />
	<vehicle id="v176" depart="477.11" route="sr458" type="CarDefault" departLane="random" />
	<vehicle id="v1695" depart="478.52" route="sr460" type="CarDefault" departLane="random" />
	<vehicle id="v765" depart="479" route="sr459" type="CarDefault" departLane="random" />
	<vehicle id="v932" depart="481.06" route="sr459" type="CarDefault" departLane="random" />
	<vehicle id="v177" depart="482.53" route="sr458" type="CarDefault" departLane="random" />
	<vehicle id="v1696" depart="484.08" route="sr460" type="CarDefault" departLane="random" />
	<vehicle id="v933" depart="486.34" route="sr459" type="CarDefault" departLane="random" />
	<vehicle id="v178" depart="487.95" route="sr458" type="CarDefault" departLane="random" />
	<vehicle id="v1697" depart="489.64" route="sr460" type="CarDefault" departLane="random" />
	<vehicle id="v934" depart="491.63" route="sr459" type="CarDefault" departLane="random" />
	<vehicle id="v179" depart="493.37" route="sr458" type="CarDefault" departLane="random" />
	<vehicle id="v1698" depart="495.21" route="sr460" type="CarDefault" departLane="random" />
	<vehicle id="v935" depart="496.92" route="sr459" type="CarDefault" departLane="random" />
	<vehicle id="v13" depart="498" route="sr458" type="CarDefault" departLane="random" />
	<vehicle id="v180" depart="498.8" route="sr458" type="CarDefault" departLane="random" />
	<vehicle id="v1699" depart="500.77" route="sr460" type="CarDefault" departLane="random" />
	<vehicle id="v936" depart="502.2" route="sr459" type="CarDefault" departLane="random" />
	<vehicle id="v181" depart="504.22" route="sr458" type="CarDefault" departLane="random" />
	<vehicle id="v1700" depart="506.34" route="sr460" type="CarDefault" departLane="random" />
	<vehicle id="v937" depart="507.49" route="sr459" type="CarDefault" departLane="random" />
	<vehicle id="v14" depart="508" route="sr458" type="CarDefault" departLane="random" />
	<vehicle id="v182" depart="509.64" route="sr458" type="CarDefault" departLane="random" />
	<vehicle id="v1701" depart="511.9" route="sr460" type="CarDefault" departLane="random" />
	<vehicle id="v938" depart="512.78" route="sr459" type="CarDefault" departLane="random" />
	<vehicle id="v183" depart="515.06" route="sr458" type="CarDefault" departLane="random" />