<?xml version='1.0' encoding='utf-8'?>
<routes>
	<vType accel="3.0" decel="6.0" id="CarDefault" length="5.0" minGap="2.5" maxSpeed="50.0" sigma="0.5" />
	<route id="sr190" edges="55 169 130 131 56 73 105 1 30 50 157 154 125 143 144" fromJunction="83" toJunction="70" />
	<route id="r576" edges="15 139 97 119 117 120 25 11 2 141 99 100 101 102 103 183 77 75 78 79" fromJunction="15" toJunction="73" />
	<route id="r574" edges="13 83 118 136 137 138 5 44 73 105 54 53" fromJunction="69" toJunction="81" />
	<route id="sr189" edges="13 83 118 136 137 138 5 63 135 163 54 53" fromJunction="69" toJunction="81" />
	<route id="sr191" edges="15 139 97 119 117 120 136 137 138 5 9 21 32 31 182 75 78 79" fromJunction="15" toJunction="73" />
	<route id="r575" edges="55 169 130 131 56 73 105 1 164 104 40 70 144" fromJunction="83" toJunction="70" />
	<route id="sr188" edges="22 12 112 19 8 0 32 31 182 87 88 89 179 178" fromJunction="78" toJunction="19" />
	<vehicle id="v0" depart="0.0" route="sr188" type="CarDefault" departLane="random" />
	<vehicle id="v905" depart="0.0" route="r574" type="CarDefault" departLane="random" />
	<vehicle id="v1805" depart="0.0" route="r575" type="CarDefault" departLane="random" />
	<vehicle id="v3013" depart="0.0" route="r576" type="CarDefault" departLane="random" />
	<vehicle id="v906" depart="4.0" route="r574" type="CarDefault" departLane="random" />
	<vehicle id="v1806" depart="5.97" route="r575" type="CarDefault" departLane="random" />
	<vehicle id="v3014" depart="6.7" route="r576" type="CarDefault" departLane="random" />
	<vehicle id="v907" depart="8.01" route="r574" type="CarDefault" departLane="random" />
	<vehicle id="v1" depart="8.82" route="sr188" type="CarDefault" departLane="random" />
	<vehicle id="v1807" depart="11.94" route="r575" type="CarDefault" departLane="random" />
	<vehicle id="v908" depart="12.01" route="r574" type="CarDefault" departLane="random" />
	<vehicle id="v3015" depart="13.41" route="r576" type="CarDefault" departLane="random" />
	<vehicle id="v909" depart="16.02" route="r574" type="CarDefault" departLane="random" />
	<vehicle id="v2" depart="17.65" route="sr188" type="CarDefault" departLane="random" />
	<vehicle id="v1808" depart="17.91" route="r575" type="CarDefault" departLane="random" />
	<vehicle id="v910" depart="20.02" route="r574" type="CarDefault" departLane="random" />
	<vehicle id="v3016" depart="20.11" route="r576" type="CarDefault" departLane="random" />
	<vehicle id="v1809" depart="23.88" route="r575" type="CarDefault" departLane="random" />
	<vehicle id="v911" depart="24.03" route="r574" type="CarDefault" departLane="random" />
	<vehicle id="v3" depart="26.47" route="sr188" type="CarDefault" departLane="random" />
	<vehicle id="v3017" depart="26.82" route="r576" type="CarDefault" departLane="random" />
	<vehicle id="v912" depart="28.03" route="r574" type="CarDefault" departLane="random" />
	<vehicle id="v1810" depart="29.85" route="r575" type="CarDefault" departLane="random" />
	<vehicle id="v913" depart="32.04" route="r574" type="CarDefault" departLane="random" />
	<vehicle id="v3018" depart="33.52" route="r576" type="CarDefault" departLane="random" />
	<vehicle id="v4" depart="35.29" route="sr188" type="CarDefault" departLane="random" />
	<vehicle id="v1811" depart="35.82" route="r575" type="CarDefault" departLane="random" />
	<vehicle id="v914" depart="36.04" route="r574" type="CarDefault" departLane="random" />
	<vehicle id="v915" depart="40.04" route="r574" type="CarDefault" departLane="random" />
	<vehicle id="v3019" depart="40.22" route="r576" type="CarDefault" departLane="random" />
	<vehicle id="v1812" depart="41.79" route="r575" type="CarDefault" departLane="random" />
	<vehicle id="v916" depart="44.05" route="r574" type="CarDefault" departLane="random" />
	<vehicle id="v5" depart="44.12" route="sr188" type="CarDefault" departLane="random" />
	<vehicle id="v3020" depart="46.93" route="r576" type="CarDefault" departLane="random" />
	<vehicle id="v1813" depart="47.76" route="r575" type="CarDefault" departLane="random" />
	<vehicle id="v917" depart="48.05" route="r574" type="CarDefault" departLane="random" />
	<vehicle id="v918" depart="52.06" route="r574" type="CarDefault" departLane="random" />
	<vehicle id="v6" depart="52.94" route="sr188" type="CarDefault" departLane="random" />
	<vehicle id="v3021" depart="53.63" route="r576" type="CarDefault" departLane="random" />
	<vehicle id="v1814" depart="53.73" route="r575" type="CarDefault" departLane="random" />
	<vehicle id="v919" depart="56.06" route="r574" type="CarDefault" departLane="random" />
	<vehicle id="v1815" depart="59.7" route="r575" type="CarDefault" departLane="random" />
	<vehicle id="v920" depart="60.07" route="r574" type="CarDefault" departLane="random" />
	<vehicle id="v3022" depart="60.34" route="r576" type="CarDefault" departLane="random" />
	<vehicle id="v7" depart="61.76" route="sr188" type="CarDefault" departLane="random" />
	<vehicle id="v921" depart="64.07" route="r574" type="CarDefault" departLane="random" />
	<vehicle id="v1816" depart="65.67" route="r575" type="CarDefault" departLane="random" />
	<vehicle id="v3023" depart="67.04" route="r576" type="CarDefault" departLane="random" />
	<vehicle id="v922" depart="68.08" route="r574" type="CarDefault" departLane="random" />
	<vehicle id="v8" depart="70.59" route="sr188" type="CarDefault" departLane="random" />
	<vehicle id="v1817" depart="71.64" route="r575" type="CarDefault" departLane="random" />
	<vehicle id="v923" depart="72.08" route="r574" type="CarDefault" departLane="random" />
	<vehicle id="v3024" depart="73.74" route="r576" type="CarDefault" departLane="random" />
	<vehicle id="v924" depart="76.08" route="r574" type="CarDefault" departLane="random" />
	<vehicle id="v1818" depart="77.61" route="r575" type="CarDefault" departLane="random" />
	<vehicle id="v821" depart="78" route="r574" type="CarDefault" departLane="random" />
	<vehicle id="v9" depart="79.41" route="sr188" type="CarDefault" departLane="random" />
	<vehicle id="v925" depart="80.09" route="r574" type="CarDefault" departLane="random" />
	<vehicle id="v3025" depart="80.45" route="r576" type="CarDefault" departLane="random" />
	<vehicle id="v1819" depart="83.58" route="r575" type="CarDefault" departLane="random" />
	<vehicle id="v926" depart="84.09" route="r574" type="CarDefault" departLane="random" />
	<vehicle id="v3026" depart="87.15" route="r576" type="CarDefault" departLane="random" />
	<vehicle id="v927" depart="88.1" route="r574" type="CarDefault" departLane="random" />
	<vehicle id="v10" depart="88.24" route="sr188" type="CarDefault" departLane="random" />
	<vehicle id="v1820" depart="89.55" route="r575" type="CarDefault" departLane="random" />
	<vehicle id="v928" depart="92.1" route="r574" type="CarDefault" departLane="random" />
	<vehicle id="v3027" depart="93.85" route="r576" type="CarDefault" departLane="random" />
	<vehicle id="v822" depart="95" route="r574" type="CarDefault" departLane="random" />
	<vehicle id="v1821" depart="95.52" route="r575" type="CarDefault" departLane="random" />
	<vehicle id="v929" depart="96.11" route="r574" type="CarDefault" departLane="random" />
	<vehicle id="v11" depart="97.06" route="sr188" type="CarDefault" departLane="random" />
	<vehicle id="v930" depart="100.11" route="r574" type="CarDefault" departLane="random" />
	<vehicle id="v3028" depart="100.56" route="r576" type="CarDefault" departLane="random" />
	<vehicle id="v1822" depart="101.49" route="r575" type="CarDefault" departLane="random" />
	<vehicle id="v931" depart="104.12" route="r574" type="CarDefault" departLane="random" />
	<vehicle id="v12" depart="105.88" route="sr188" type="CarDefault" departLane="random" />
	<vehicle id="v3029" depart="107.26" route="r576" type="CarDefault" departLane="random" />
	<vehicle id="v1823" depart="107.46" route="r575" type="CarDefault" departLane="random" />
	<vehicle id="v932" depart="108.12" route="r574" type="CarDefault" departLane="random" />
	<vehicle id="v933" depart="112.12" route="r574" type="CarDefault" departLane="random" />
	<vehicle id="v1824" depart="113.43" route="r575" type="CarDefault" departLane="random" />
	<vehicle id="v3030" depart="113.97" route="r576" type="CarDefault" departLane="random" />
	<vehicle id="v13" depart="114.71" route="sr188" type="CarDefault" departLane="random" />
	<vehicle id="v934" depart="116.13" route="r574" type="CarDefault" departLane="random" />
	<vehicle id="v1825" depart="119.4" route="r575" type="CarDefault" departLane="random" />
	<vehicle id="v935" depart="120.13" route="r574" type="CarDefault" departLane="random" />
	<vehicle id="v3031" depart="120.67" route="r576" type="CarDefault" departLane="random" />
	<vehicle id="v14" depart="123.53" route="sr188" type="CarDefault" departLane="random" />
	<vehicle id="v936" depart="124.14" route="r574" type="CarDefault" departLane="random" />
	<vehicle id="v1826" depart="125.37" route="r575" type="CarDefault" departLane="random" />
	<vehicle id="v3032" depart="127.37" route="r576" type="CarDefault" departLane="random" />
	<vehicle id="v937" depart="128.14" route="r574" type="CarDefault" departLane="random" />
	<vehicle id="v1827" depart="131.34" route="r575" type="CarDefault" departLane="random" />
	<vehicle id="v938" depart="132.15" route="r574" type="CarDefault" departLane="random" />
	<vehicle id="v15" depart="132.35" route="sr188" type="CarDefault" departLane="random" />
	<vehicle id="v3033" depart="134.08" route="r576" type="CarDefault" departLane="random" />
	<vehicle id="v939" depart="136.15" route="r574" type="CarDefault" departLane="random" />
	<vehicle id="v1828" depart="137.31" route="r575" type="CarDefault" departLane="random" />
	<vehicle id="v940" depart="140.16" route="r574" type="CarDefault" departLane="random" />
	<vehicle id="v3034" depart="140.78" route="r576" type="CarDefault" departLane="random" />
	<vehicle id="v16" depart="141.18" route="sr188" type="CarDefault" departLane="random" />
	<vehicle id="v1829" depart="143.28" route="r575" type="CarDefault" departLane="random" />
	<vehicle id="v941" depart="144.16" route="r574" type="CarDefault" departLane="random" />
	<vehicle id="v3035" depart="147.49" route="r576" type="CarDefault" departLane="random" />
	<vehicle id="v942" depart="148.16" route="r574" type="CarDefault" departLane="random" />
	<vehicle id="v1830" depart="149.25" route="r575" type="CarDefault" departLane="random" />
	<vehicle id="v17" depart="150.0" route="sr188" type="CarDefault" departLane="random" />
	<vehicle id="v943" depart="152.17" route="r574" type="CarDefault" departLane="random" />
	<vehicle id="v3036" depart="154.19" route="r576" type="CarDefault" departLane="random" />
	<vehicle id="v1831" depart="155.22" route="r575" type="CarDefault" departLane="random" />
	<vehicle id="v944" depart="156.17" route="r574" type="CarDefault" departLane="random" />
	<vehicle id="v18" depart="158.82" route="sr188" type="CarDefault" departLane="random" />
	<vehicle id="v945" depart="160.18" route="r574" type="CarDefault" departLane="random" />
	<vehicle id="v3037" depart="160.89" route="r576" type="CarDefault" departLane="random" />
	<vehicle id="v1832" depart="161.19" route="r575" type="CarDefault" departLane="random" />
	<vehicle id="v946" depart="164.18" route="r574" type="CarDefault" departLane="random" />
	<vehicle id="v1833" depart="167.16" route="r575" type="CarDefault" departLane="random" />
	<vehicle id="v3038" depart="167.6" route="r576" type="CarDefault" departLane="random" />
	<vehicle id="v19" depart="167.65" route="sr188" type="CarDefault" departLane="random" />
	<vehicle id="v947" depart="168.19" route="r574" type="CarDefault" departLane="random" />
	<vehicle id="v948" depart="172.19" route="r574" type="CarDefault" departLane="random" />
	<vehicle id="v1834" depart="173.13" route="r575" type="CarDefault" departLane="random" />
	<vehicle id="v3039" depart="174.3" route="r576" type="CarDefault" departLane="random" />
	<vehicle id="v949" depart="176.2" route="r574" type="CarDefault" departLane="random" />
	<vehicle id="v20" depart="176.47" route="sr188" type="CarDefault" departLane="random" />
	<vehicle id="v1835" depart="179.1" route="r575" type="CarDefault" departLane="random" />
	<vehicle id="v950" depart="180.2" route="r574" type="CarDefault" departLane="random" />
	<vehicle id="v3040" depart="181.01" route="r576" type="CarDefault" departLane="random" />
	<vehicle id="v951" depart="184.2" route="r574" type="CarDefault" departLane="random" />
	<vehicle id="v1836" depart="185.07" route="r575" type="CarDefault" departLane="random" />
	<vehicle id="v21" depart="185.29" route="sr188" type="CarDefault" departLane="random" />
	<vehicle id="v3041" depart="187.71" route="r576" type="CarDefault" departLane="random" />
	<vehicle id="v952" depart="188.21" route="r574" type="CarDefault" departLane="random" />
	<vehicle id="v1837" depart="191.04" route="r575" type="CarDefault" departLane="random" />
	<vehicle id="v953" depart="192.21" route="r574" type="CarDefault" departLane="random" />
	<vehicle id="v22" depart="194.12" route="sr188" type="CarDefault" departLane="random" />
	<vehicle id="v3042" depart="194.41" route="r576" type="CarDefault" departLane="random" />
	<vehicle id="v954" depart="196.22" route="r574" type="CarDefault" departLane="random" />
	<vehicle id="v1838" depart="197.01" route="r575" type="CarDefault" departLane="random" />
	<vehicle id="v955" depart="200.22" route="r574" type="CarDefault" departLane="random" />
	<vehicle id="v3043" depart="201.12" route="r576" type="CarDefault" departLane="random" />
	<vehicle id="v23" depart="202.94" route="sr188" type="CarDefault" departLane="random" />
	<vehicle id="v1839" depart="202.99" route="r575" type="CarDefault" departLane="random" />
	<vehicle id="v956" depart="204.23" route="r574" type="CarDefault" departLane="random" />
	<vehicle id="v3044" depart="207.82" route="r576" type="CarDefault" departLane="random" />
	<vehicle id="v957" depart="208.23" route="r574" type="CarDefault" departLane="random" />
	<vehicle id="v1840" depart="208.96" route="r575" type="CarDefault" departLane="random" />
	<vehicle id="v24" depart="211.76" route="sr188" type="CarDefault" departLane="random" />
	<vehicle id="v958" depart="212.24" route="r574" type="CarDefault" departLane="random" />
	<vehicle id="v823" depart="214" route="r574" type="CarDefault" departLane="random" />
	<vehicle id="v3045" depart="214.53" route="r576" type="CarDefault" departLane="random" />
	<vehicle id="v1841" depart="214.93" route="r575" type="CarDefault" departLane="random" />
	<vehicle id="v959" depart="216.24" route="r574" type="CarDefault" departLane="random" />
	<vehicle id="v960" depart="220.24" route="r574" type="CarDefault" departLane="random" />
	<vehicle id="v25" depart="220.59" route="sr188" type="CarDefault" departLane="random" />
	<vehicle id="v1842" depart="220.9" route="r575" type="CarDefault" departLane="random" />
	<vehicle id="v3046" depart="221.23" route="r576" type="CarDefault" departLane="random" />
	<vehicle id="v961" depart="224.25" route="r574" type="CarDefault" departLane="random" />
	<vehicle id="v1843" depart="226.87" route="r575" type="CarDefault" departLane="random" />
	<vehicle id="v3047" depart="227.93" route="r576" type="CarDefault" departLane="random" />
	<vehicle id="v962" depart="228.25" route="r574" type="CarDefault" departLane="random" />
	<vehicle id="v26" depart="229.41" route="sr188" type="CarDefault" departLane="random" />
	<vehicle id="v963" depart="232.26" route="r574" type="CarDefault" departLane="random" />
	<vehicle id="v1844" depart="232.84" route="r575" type="CarDefault" departLane="random" />
	<vehicle id="v3048" depart="234.64" route="r576" type="CarDefault" departLane="random" />
	<vehicle id="v964" depart="236.26" route="r574" type="CarDefault" departLane="random" />
	<vehicle id="v27" depart="238.24" route="sr188" type="CarDefault" departLane="random" />
	<vehicle id="v1845" depart="238.81" route="r575" type="CarDefault" departLane="random" />
	<vehicle id="v965" depart="240.27" route="r574" type="CarDefault" departLane="random" />
	<vehicle id="v3049" depart="241.34" route="r576" type="CarDefault" departLane="random" />
	<vehicle id="v966" depart="244.27" route="r574" type="CarDefault" departLane="random" />
	<vehicle id="v1846" depart="244.78" route="r575" type="CarDefault" departLane="random" />
	<vehicle id="v824" depart="245" route="r574" type="CarDefault" departLane="random" />
	<vehicle id="v28" depart="247.06" route="sr188" type="CarDefault" departLane="random" />
	<vehicle id="v3050" depart="248.04" route="r576" type="CarDefault" departLane="random" />
	<vehicle id="v967" depart="248.28" route="r574" type="CarDefault" departLane="random" />
	<vehicle id="v1847" depart="250.75" route="r575" type="CarDefault" departLane="random" />
	<vehicle id="v968" depart="252.28" route="r574" type="CarDefault" departLane="random" />
	<vehicle id="v3051" depart="254.75" route="r576" type="CarDefault" departLane="random" />
	<vehicle id="v29" depart="255.88" route="sr188" type="CarDefault" departLane="random" />
	<vehicle id="v969" depart="256.28" route="r574" type="CarDefault" departLane="random" />
	<vehicle id="v1848" depart="256.72" route="r575" type="CarDefault" departLane="random" />
	<vehicle id="v970" depart="260.29" route="r574" type="CarDefault" departLane="random" />
	<vehicle id="v3052" depart="261.45" route="r576" type="CarDefault" departLane="random" />
	<vehicle id="v1849" depart="262.69" route="r575" type="CarDefault" departLane="random" />
	<vehicle id="v971" depart="264.29" route="r574" type="CarDefault" departLane="random" />
	<vehicle id="v30" depart="264.71" route="sr188" type="CarDefault" departLane="random" />
	<vehicle id="v3053" depart="268.16" route="r576" type="CarDefault" departLane="random" />
	<vehicle id="v972" depart="268.3" route="r574" type="CarDefault" departLane="random" />
	<vehicle id="v1850" depart="268.66" route="r575" type="CarDefault" departLane="random" />
	<vehicle id="v973" depart="272.3" route="r574" type="CarDefault" departLane="random" />
	<vehicle id="v31" depart="273.53" route="sr188" type="CarDefault" departLane="random" />
	<vehicle id="v1851" depart="274.63" route="r575" type="CarDefault" departLane="random" />
	<vehicle id="v3054" depart="274.86" route="r576" type="CarDefault" departLane="random" />
	<vehicle id="v974" depart="276.31" route="r574" type="CarDefault" departLane="random" />
	<vehicle id="v975" depart="280.31" route="r574" type="CarDefault" departLane="random" />
	<vehicle id="v1852" depart="280.6" route="r575" type="CarDefault" departLane="random" />
	<vehicle id="v3055" depart="281.56" route="r576" type="CarDefault" departLane="random" />
	<vehicle id="v32" depart="282.35" route="sr188" type="CarDefault" departLane="random" />
	<vehicle id="v976" depart="284.32" route="r574" type="CarDefault" departLane="random" />
	<vehicle id="v1853" depart="286.57" route="r575" type="CarDefault" departLane="random" />
	<vehicle id="v3056" depart="288.27" route="r576" type="CarDefault" departLane="random" />
	<vehicle id="v977" depart="288.32" route="r574" type="CarDefault" departLane="random" />
	<vehicle id="v33" depart="291.18" route="sr188" type="CarDefault" departLane="random" />
	<vehicle id="v978" depart="292.32" route="r574" type="CarDefault" departLane="random" />
	<vehicle id="v1854" depart="292.54" route="r575" type="CarDefault" departLane="random" />
	<vehicle id="v3057" depart="294.97" route="r576" type="CarDefault" departLane="random" />
	<vehicle id="v979" depart="296.33" route="r574" type="CarDefault" departLane="random" />
	<vehicle id="v1855" depart="298.51" route="r575" type="CarDefault" departLane="random" />
	<vehicle id="v34" depart="300.0" route="sr188" type="CarDefault" departLane="random" />
	<vehicle id="v980" depart="300.33" route="r574" type="CarDefault" departLane="random" />
	<vehicle id="v3058" depart="301.68" route="r576" type="CarDefault" departLane="random" />
	<vehicle id="v981" depart="304.34" route="r574" type="CarDefault" departLane="random" />
	<vehicle id="v1856" depart="304.48" route="r575" type="CarDefault" departLane="random" />
	<vehicle id="v982" depart="308.34" route="r574" type="CarDefault" departLane="random" />
	<vehicle id="v3059" depart="308.38" route="r576" type="CarDefault" departLane="random" />
	<vehicle id="v35" depart="308.82" route="sr188" type="CarDefault" departLane="random" />
	<vehicle id="v1857" depart="310.45" route="r575" type="CarDefault" departLane="random" />
	<vehicle id="v825" depart="312" route="r574" type="CarDefault" departLane="random" />
	<vehicle id="v983" depart="312.35" route="r574" type="CarDefault" departLane="random" />
	<vehicle id="v3060" depart="315.08" route="r576" type="CarDefault" departLane="random" />
	<vehicle id="v984" depart="316.35" route="r574" type="CarDefault" departLane="random" />
	<vehicle id="v1858" depart="316.42" route="r575" type="CarDefault" departLane="random" />
	<vehicle id="v36" depart="317.65" route="sr188" type="CarDefault" departLane="random" />
	<vehicle id="v985" depart="320.36" route="r574" type="CarDefault" departLane="random" />
	<vehicle id="v3061" depart="321.79" route="r576" type="CarDefault" departLane="random" />
	<vehicle id="v1859" depart="322.39" route="r575" type="CarDefault" departLane="random" />
	<vehicle id="v986" depart="324.36" route="r574" type="CarDefault" departLane="random" />
	<vehicle id="v37" depart="326.47" route="sr188" type="CarDefault" departLane="random" />
	<vehicle id="v987" depart="328.36" route="r574" type="CarDefault" departLane="random" />
	<vehicle id="v1860" depart="328.36" route="r575" type="CarDefault" departLane="random" />
	<vehicle id="v3062" depart="328.49" route="r576" type="CarDefault" departLane="random" />
	<vehicle id="v988" depart="332.37" route="r574" type="CarDefault" departLane="random" />
	<vehicle id="v1861" depart="334.33" route="r575" type="CarDefault" departLane="random" />
	<vehicle id="v3063" depart="335.2" route="r576" type="CarDefault" departLane="random" />
	<vehicle id="v38" depart="335.29" route="sr188" type="CarDefault" departLane="random" />
	<vehicle id="v989" depart="336.37" route="r574" type="CarDefault" departLane="random" />
	<vehicle id="v1862" depart="340.3" route="r575" type="CarDefault" departLane="random" />
	<vehicle id="v990" depart="340.38" route="r574" type="CarDefault" departLane="random" />
	<vehicle id="v3064" depart="341.9" route="r576" type="CarDefault" departLane="random" />
	<vehicle id="v39" depart="344.12" route="sr188" type="CarDefault" departLane="random" />
	<vehicle id="v991" depart="344.38" route="r574" type="CarDefault" departLane="random" />
	<vehicle id="v1863" depart="346.27" route="r575" type="CarDefault" departLane="random" />
	<vehicle id="v992" depart="348.39" route="r574" type="CarDefault" departLane="random" />
	<vehicle id="v3065" depart="348.6" route="r576" type="CarDefault" departLane="random" />
	<vehicle id="v1864" depart="352.24" route="r575" type="CarDefault" departLane="random" />
	<vehicle id="v993" depart="352.39" route="r574" type="CarDefault" departLane="random" />
	<vehicle id="v40" depart="352.94" route="sr188" type="CarDefault" departLane="random" />
	<vehicle id="v3066" depart="355.31" route="r576" type="CarDefault" departLane="random" />
	<vehicle id="v994" depart="356.4" route="r574" type="CarDefault" departLane="random" />
	<vehicle id="v1865" depart="358.21" route="r575" type="CarDefault" departLane="random" />
	<vehicle id="v995" depart="360.4" route="r574" type="CarDefault" departLane="random" />
	<vehicle id="v41" depart="361.76" route="sr188" type="CarDefault" departLane="random" />
	<vehicle id="v3067" depart="362.01" route="r576" type="CarDefault" departLane="random" />
	<vehicle id="v1866" depart="364.18" route="r575" type="CarDefault" departLane="random" />
	<vehicle id="v996" depart="364.4" route="r574" type="CarDefault" departLane="random" />
	<vehicle id="v997" depart="368.41" route="r574" type="CarDefault" departLane="random" />
	<vehicle id="v3068" depart="368.72" route="r576" type="CarDefault" departLane="random" />
	<vehicle id="v1867" depart="370.15" route="r575" type="CarDefault" departLane="random" />
	<vehicle id="v42" depart="370.59" route="sr188" type="CarDefault" departLane="random" />
	<vehicle id="v998" depart="372.41" route="r574" type="CarDefault" departLane="random" />
	<vehicle id="v3069" depart="375.42" route="r576" type="CarDefault" departLane="random" />
	<vehicle id="v1868" depart="376.12" route="r575" type="CarDefault" departLane="random" />
	<vehicle id="v999" depart="376.42" route="r574" type="CarDefault" departLane="random" />
	<vehicle id="v826" depart="378" route="r574" type="CarDefault" departLane="random" />
	<vehicle id="v43" depart="379.41" route="sr188" type="CarDefault" departLane="random" />
	<vehicle id="v1000" depart="380.42" route="r574" type="CarDefault" departLane="random" />
	<vehicle id="v1869" depart="382.09" route="r575" type="CarDefault" departLane="random" />
	<vehicle id="v3070" depart="382.12" route="r576" type="CarDefault" departLane="random" />
	<vehicle id="v1001" depart="384.43" route="r574" type="CarDefault" departLane="random" />
	<vehicle id="v1870" depart="388.06" route="r575" type="CarDefault" departLane="random" />
	<vehicle id="v44" depart="388.24" route="sr188" type="CarDefault" departLane="random" />
	<vehicle id="v1002" depart="388.43" route="r574" type="CarDefault" departLane="random" />
	<vehicle id="v3071" depart="388.83" route="r576" type="CarDefault" departLane="random" />
	<vehicle id="v1003" depart="392.44" route="r574" type="CarDefault" departLane="random" />
	<vehicle id="v1871" depart="394.03" route="r575" type="CarDefault" departLane="random" />
	<vehicle id="v3072" depart="395.53" route="r576" type="CarDefault" departLane="random" />
	<vehicle id="v1004" depart="396.44" route="r574" type="CarDefault" departLane="random" />
	<vehicle id="v45" depart="397.06" route="sr188" type="CarDefault" departLane="random" />
	<vehicle id="v1872" depart="400.0" route="r575" type="CarDefault" departLane="random" />
	<vehicle id="v1005" depart="400.44" route="r574" type="CarDefault" departLane="random" />
	<vehicle id="v3073" depart="402.23" route="r576" type="CarDefault" departLane="random" />
	<vehicle id="v1006" depart="404.45" route="r574" type="CarDefault" departLane="random" />
	<vehicle id="v46" depart="405.88" route="sr188" type="CarDefault" departLane="random" />
	<vehicle id="v1873" depart="405.97" route="r575" type="CarDefault" departLane="random" />
	<vehicle id="v827" depart="406" route="r574" type="CarDefault" departLane="random" />
	<vehicle id="v1007" depart="408.45" route="r574" type="CarDefault" departLane="random" />
	<vehicle id="v3074" depart="408.94" route="r576" type="CarDefault" departLane="random" />
	<vehicle id="v1874" depart="411.94" route="r575" type="CarDefault" departLane="random" />
	<vehicle id="v1008" depart="412.46" route="r574" type="CarDefault" departLane="random" />
	<vehicle id="v47" depart="414.71" route="sr188" type="CarDefault" departLane="random" />
	<vehicle id="v3075" depart="415.64" route="r576" type="CarDefault" departLane="random" />
	<vehicle id="v1009" depart="416.46" route="r574" type="CarDefault" departLane="random" />
	<vehicle id="v1875" depart="417.91" route="r575" type="CarDefault" departLane="random" />
	<vehicle id="v1010" depart="420.47" route="r574" type="CarDefault" departLane="random" />
	<vehicle id="v3076" depart="422.35" route="r576" type="CarDefault" departLane="random" />
	<vehicle id="v48" depart="423.53" route="sr188" type="CarDefault" departLane="random" />
	<vehicle id="v1876" depart="423.88" route="r575" type="CarDefault" departLane="random" />
	<vehicle id="v1011" depart="424.47" route="r574" type="CarDefault" departLane="random" />
	<vehicle id="v1012" depart="428.48" route="r574" type="CarDefault" departLane="random" />
	<vehicle id="v3077" depart="429.05" route="r576" type="CarDefault" departLane="random" />
	<vehicle id="v1877" depart="429.85" route="r575" type="CarDefault" departLane="random" />
	<vehicle id="v49" depart="432.35" route="sr188" type="CarDefault" departLane="random" />
	<vehicle id="v1013" depart="432.48" route="r574" type="CarDefault" departLane="random" />
	<vehicle id="v828" depart="435" route="r574" type="CarDefault" departLane="random" />
	<vehicle id="v3078" depart="435.75" route="r576" type="CarDefault" departLane="random" />
	<vehicle id="v1878" depart="435.82" route="r575" type="CarDefault" departLane="random" />
	<vehicle id="v1014" depart="436.48" route="r574" type="CarDefault" departLane="random" />
	<vehicle id="v1015" depart="440.49" route="r574" type="CarDefault" departLane="random" />
	<vehicle id="v50" depart="441.18" route="sr188" type="CarDefault" departLane="random" />
	<vehicle id="v1879" depart="441.79" route="r575" type="CarDefault" departLane="random" />
	<vehicle id="v3079" depart="442.46" route="r576" type="CarDefault" departLane="random" />
	<vehicle id="v1016" depart="444.49" route="r574" type="CarDefault" departLane="random" />
	<vehicle id="v1880" depart="447.76" route="r575" type="CarDefault" departLane="random" />
	<vehicle id="v1017" depart="448.5" route="r574" type="CarDefault" departLane="random" />
	<vehicle id="v3080" depart="449.16" route="r576" type="CarDefault" departLane="random" />
	<vehicle id="v51" depart="450.0" route="sr188" type="CarDefault" departLane="random" />
	<vehicle id="v1018" depart="452.5" route="r574" type="CarDefault" departLane="random" />
	<vehicle id="v1881" depart="453.73" route="r575" type="CarDefault" departLane="random" />
	<vehicle id="v3081" depart="455.87" route="r576" type="CarDefault" departLane="random" />
	<vehicle id="v829" depart="456" route="r574" type="CarDefault" departLane="random" />
	<vehicle id="v1019" depart="456.51" route="r574" type="CarDefault" departLane="random" />