<?xml version='1.0' encoding='utf-8'?>
<routes>
	<vType accel="3.0" decel="6.0" id="CarDefault" length="5.0" minGap="2.5" maxSpeed="50.0" sigma="0.5" />
	<route id="sr19709" edges="124 66 65 64 63 76 75 72 71 151 150 149 148 147 26 233 232 86 88 87 173 243 311 312 24 111 10 110 103 102 431 313 436 420 211 95 94" fromJunction="139" toJunction="73" />
	<route id="sr19710" edges="52 183 199 198 197 36 243 311 312 24 111 10 110 103 102 276 196 195 252 58 38" fromJunction="243" toJunction="68" />
	<route id="sr19711" edges="604 605 579 580 306 543 544 350 602 76 75 72 71 74 73 59 68 192 191 190 189 188 69 70 272 347 287 632 365 366 603 353 354 239 447 448 23 58 38" fromJunction="226" toJunction="68" />
	<vehicle id="v8002" depart="0.0" route="sr19709" type="CarDefault" departLane="random" />
	<vehicle id="v8580" depart="0.0" route="sr19710" type="CarDefault" departLane="random" />
	<vehicle id="v9788" depart="0.0" route="sr19711" type="CarDefault" departLane="random" />
	<vehicle id="v8581" depart="5.97" route="sr19710" type="CarDefault" departLane="random" />
	<vehicle id="v9789" depart="5.97" route="sr19711" type="CarDefault" departLane="random" />
	<vehicle id="v8003" depart="6.24" route="sr19709" type="CarDefault" departLane="random" />
	<vehicle id="v8582" depart="11.94" route="sr19710" type="CarDefault" departLane="random" />
	<vehicle id="v9790" depart="11.94" route="sr19711" type="CarDefault" departLane="random" />
	<vehicle id="v8004" depart="12.48" route="sr19709" type="CarDefault" departLane="random" />
	<vehicle id="v8583" depart="17.91" route="sr19710" type="CarDefault" departLane="random" />
	<vehicle id="v9791" depart="17.91" route="sr19711" type="CarDefault" departLane="random" />
	<vehicle id="v8005" depart="18.72" route="sr19709" type="CarDefault" departLane="random" />
	<vehicle id="v8584" depart="23.88" route="sr19710" type="CarDefault" departLane="random" />
	<vehicle id="v9792" depart="23.88" route="sr19711" type="CarDefault" departLane="random" />
	<vehicle id="v8006" depart="24.96" route="sr19709" type="CarDefault" departLane="random" />
	<vehicle id="v8585" depart="29.85" route="sr19710" type="CarDefault" departLane="random" />
	<vehicle id="v9793" depart="29.85" route="sr19711" type="CarDefault" departLane="random" />
	<vehicle id="v8007" depart="31.2" route="sr19709" type="CarDefault" departLane="random" />
	<vehicle id="v8586" depart="35.82" route="sr19710" type="CarDefault" departLane="random" />
	<vehicle id="v9794" depart="35.82" route="sr19711" type="CarDefault" departLane="random" />
	<vehicle id="v8008" depart="37.44" route="sr19709" type="CarDefault" departLane="random" />
	<vehicle id="v8587" depart="41.79" route="sr19710" type="CarDefault" departLane="random" />
	<vehicle id="v9795" depart="41.79" route="sr19711" type="CarDefault" departLane="random" />
	<vehicle id="v8009" depart="43.67" route="sr19709" type="CarDefault" departLane="random" />
	<vehicle id="v8588" depart="47.76" route="sr19710" type="CarDefault" departLane="random" />
	<vehicle id="v9796" depart="47.76" route="sr19711" type="CarDefault" departLane="random" />
	<vehicle id="v8010" depart="49.91" route="sr19709" type="CarDefault" departLane="random" />
	<vehicle id="v8589" depart="53.73" route="sr19710" type="CarDefault" departLane="random" />
	<vehicle id="v9797" depart="53.73" route="sr19711" type="CarDefault" departLane="random" />
	<vehicle id="v7919" depart="55" route="sr19709" type="CarDefault" departLane="random" />
	<vehicle id="v8011" depart="56.15" route="sr19709" type="CarDefault" departLane="random" />
	<vehicle id="v8590" depart="59.7" route="sr19710" type="CarDefault" departLane="random" />
	<vehicle id="v9798" depart="59.7" route="sr19711" type="CarDefault" departLane="random" />
	<vehicle id="v8012" depart="62.39" route="sr19709" type="CarDefault" departLane="random" />
	<vehicle id="v8591" depart="65.67" route="sr19710" type="CarDefault" departLane="random" />
	<vehicle id="v9799" depart="65.67" route="sr19711" type="CarDefault" departLane="random" />
	<vehicle id="v8013" depart="68.63" route="sr19709" type="CarDefault" departLane="random" />
	<vehicle id="v8592" depart="71.64" route="sr19710" type="CarDefault" departLane="random" />
	<vehicle id="v9800" depart="71.64" route="sr19711" type="CarDefault" departLane="random" />
	<vehicle id="v8014" depart="74.87" route="sr19709" type="CarDefault" departLane="random" />
	<vehicle id="v8593" depart="77.61" route="sr19710" type="CarDefault" departLane="random" />
	<vehicle id="v9801" depart="77.61" route="sr19711" type="CarDefault" departLane="random" />
	<vehicle id="v8015" depart="81.11" route="sr19709" type="CarDefault" departLane="random" />
	<vehicle id="v8594" depart="83.58" route="sr19710" type="CarDefault" departLane="random" />
	<vehicle id="v9802" depart="83.58" route="sr19711" type="CarDefault" departLane="random" />
	<vehicle id="v8016" depart="87.35" route="sr19709" type="CarDefault" departLane="random" />
	<vehicle id="v8595" depart="89.55" route="sr19710" type="CarDefault" departLane="random" />
	<vehicle id="v9803" depart="89.55" route="sr19711" type="CarDefault" departLane="random" />
	<vehicle id="v8017" depart="93.59" route="sr19709" type="CarDefault" departLane="random" />
	<vehicle id="v8596" depart="95.52" route="sr19710" type="CarDefault" departLane="random" />
	<vehicle id="v9804" depart="95.52" route="sr19711" type="CarDefault" departLane="random" />
	<vehicle id="v8018" depart="99.83" route="sr19709" type="CarDefault" departLane="random" />
	<vehicle id="v8597" depart="101.49" route="sr19710" type="CarDefault" departLane="random" />
	<vehicle id="v9805" depart="101.49" route="sr19711" type="CarDefault" departLane="random" />
	<vehicle id="v8019" depart="106.07" route="sr19709" type="CarDefault" departLane="random" />
	<vehicle id="v8598" depart="107.46" route="sr19710" type="CarDefault" departLane="random" />
	<vehicle id="v9806" depart="107.46" route="sr19711" type="CarDefault" departLane="random" />
	<vehicle id="v8020" depart="112.31" route="sr19709" type="CarDefault" departLane="random" />
	<vehicle id="v8599" depart="113.43" route="sr19710" type="CarDefault" departLane="random" />
	<vehicle id="v9807" depart="113.43" route="sr19711" type="CarDefault" departLane="random" />
	<vehicle id="v8021" depart="118.54" route="sr19709" type="CarDefault" departLane="random" />
	<vehicle id="v8600" depart="119.4" route="sr19710" type="CarDefault" departLane="random" />
	<vehicle id="v9808" depart="119.4" route="sr19711" type="CarDefault" departLane="random" />
	<vehicle id="v8022" depart="124.78" route="sr19709" type="CarDefault" departLane="random" />
	<vehicle id="v8601" depart="125.37" route="sr19710" type="CarDefault" departLane="random" />
	<vehicle id="v9809" depart="125.37" route="sr19711" type="CarDefault" departLane="random" />
	<vehicle id="v8023" depart="131.02" route="sr19709" type="CarDefault" departLane="random" />
	<vehicle id="v8602" depart="131.34" route="sr19710" type="CarDefault" departLane="random" />
	<vehicle id="v9810" depart="131.34" route="sr19711" type="CarDefault" departLane="random" />
	<vehicle id="v8024" depart="137.26" route="sr19709" type="CarDefault" departLane="random" />
	<vehicle id="v8603" depart="137.31" route="sr19710" type="CarDefault" departLane="random" />
	<vehicle id="v9811" depart="137.31" route="sr19711" type="CarDefault" departLane="random" />
	<vehicle id="v8604" depart="143.28" route="sr19710" type="CarDefault" departLane="random" />
	<vehicle id="v9812" depart="143.28" route="sr19711" type="CarDefault" departLane="random" />
	<vehicle id="v8025" depart="143.5" route="sr19709" type="CarDefault" departLane="random" />
	<vehicle id="v7920" depart="148" route="sr19709" type="CarDefault" departLane="random" />
	<vehicle id="v8605" depart="149.25" route="sr19710" type="CarDefault" departLane="random" />
	<vehicle id="v9813" depart="149.25" route="sr19711" type="CarDefault" departLane="random" />
	<vehicle id="v8026" depart="149.74" route="sr19709" type="CarDefault" departLane="random" />
	<vehicle id="v8606" depart="155.22" route="sr19710" type="CarDefault" departLane="random" />
	<vehicle id="v9814" depart="155.22" route="sr19711" type="CarDefault" departLane="random" />
	<vehicle id="v8027" depart="155.98" route="sr19709" type="CarDefault" departLane="random" />
	<vehicle id="v8607" depart="161.19" route="sr19710" type="CarDefault" departLane="random" />
	<vehicle id="v9815" depart="161.19" route="sr19711" type="CarDefault" departLane="random" />
	<vehicle id="v8028" depart="162.22" route="sr19709" type="CarDefault" departLane="random" />
	<vehicle id="v8608" depart="167.16" route="sr19710" type="CarDefault" departLane="random" />
	<vehicle id="v9816" depart="167.16" route="sr19711" type="CarDefault" departLane="random" />
	<vehicle id="v8029" depart="168.46" route="sr19709" type="CarDefault" departLane="random" />
	<vehicle id="v8609" depart="173.13" route="sr19710" type="CarDefault" departLane="random" />
	<vehicle id="v9817" depart="173.13" route="sr19711" type="CarDefault" departLane="random" />
	<vehicle id="v8030" depart="174.7" route="sr19709" type="CarDefault" departLane="random" />
	<vehicle id="v8610" depart="179.1" route="sr19710" type="CarDefault" departLane="random" />
	<vehicle id="v9818" depart="179.1" route="sr19711" type="CarDefault" departLane="random" />
	<vehicle id="v8031" depart="180.94" route="sr19709" type="CarDefault" departLane="random" />
	<vehicle id="v8611" depart="185.07" route="sr19710" type="CarDefault" departLane="random" />
	<vehicle id="v9819" depart="185.07" route="sr19711" type="CarDefault" departLane="random" />
	<vehicle id="v8032" depart="187.18" route="sr19709" type="CarDefault" departLane="random" />
	<vehicle id="v8612" depart="191.04" route="sr19710" type="CarDefault" departLane="random" />
	<vehicle id="v9820" depart="191.04" route="sr19711" type="CarDefault" departLane="random" />
	<vehicle id="v8033" depart="193.41" route="sr19709" type="CarDefault" departLane="random" />
	<vehicle id="v7921" depart="196" route="sr19709" type="CarDefault" departLane="random" />
	<vehicle id="v8613" depart="197.01" route="sr19710" type="CarDefault" departLane="random" />
	<vehicle id="v9821" depart="197.01" route="sr19711" type="CarDefault" departLane="random" />
	<vehicle id="v8034" depart="199.65" route="sr19709" type="CarDefault" departLane="random" />
	<vehicle id="v8614" depart="202.99" route="sr19710" type="CarDefault" departLane="random" />
	<vehicle id="v9822" depart="202.99" route="sr19711" type="CarDefault" departLane="random" />
	<vehicle id="v8035" depart="205.89" route="sr19709" type="CarDefault" departLane="random" />
	<vehicle id="v8615" depart="208.96" route="sr19710" type="CarDefault" departLane="random" />
	<vehicle id="v9823" depart="208.96" route="sr19711" type="CarDefault" departLane="random" />
	<vehicle id="v8036" depart="212.13" route="sr19709" type="CarDefault" departLane="random" />
	<vehicle id="v8616" depart="214.93" route="sr19710" type="CarDefault" departLane="random" />
	<vehicle id="v9824" depart="214.93" route="sr19711" type="CarDefault" departLane="random" />
	<vehicle id="v8037" depart="218.37" route="sr19709" type="CarDefault" departLane="random" />
	<vehicle id="v8617" depart="220.9" route="sr19710" type="CarDefault" departLane="random" />
	<vehicle id="v9825" depart="220.9" route="sr19711" type="CarDefault" departLane="random" />
	<vehicle id="v7922" depart="223" route="sr19709" type="CarDefault" departLane="random" />
	<vehicle id="v8038" depart="224.61" route="sr19709" type="CarDefault" departLane="random" />
	<vehicle id="v8618" depart="226.87" route="sr19710" type="CarDefault" departLane="random" />
	<vehicle id="v9826" depart="226.87" route="sr19711" type="CarDefault" departLane="random" />
	<vehicle id="v8039" depart="230.85" route="sr19709" type="CarDefault" departLane="random" />
	<vehicle id="v8619" depart="232.84" route="sr19710" type="CarDefault" departLane="random" />
	<vehicle id="v9827" depart="232.84" route="sr19711" type="CarDefault" departLane="random" />
	<vehicle id="v8040" depart="237.09" route="sr19709" type="CarDefault" departLane="random" />
	<vehicle id="v8620" depart="238.81" route="sr19710" type="CarDefault" departLane="random" />
	<vehicle id="v9828" depart="238.81" route="sr19711" type="CarDefault" departLane="random" />
	<vehicle id="v8041" depart="243.33" route="sr19709" type="CarDefault" departLane="random" />
	<vehicle id="v8621" depart="244.78" route="sr19710" type="CarDefault" departLane="random" />
	<vehicle id="v9829" depart="244.78" route="sr19711" type="CarDefault" departLane="random" />
	<vehicle id="v8042" depart="249.57" route="sr19709" type="CarDefault" departLane="random" />
	<vehicle id="v8622" depart="250.75" route="sr19710" type="CarDefault" departLane="random" />
	<vehicle id="v9830" depart="250.75" route="sr19711" type="CarDefault" departLane="random" />
	<vehicle id="v8043" depart="255.81" route="sr19709" type="CarDefault" departLane="random" />
	<vehicle id="v8623" depart="256.72" route="sr19710" type="CarDefault" departLane="random" />
	<vehicle id="v9831" depart="256.72" route="sr19711" type="CarDefault" departLane="random" />
	<vehicle id="v8044" depart="262.05" route="sr19709" type="CarDefault" departLane="random" />
	<vehicle id="v8624" depart="262.69" route="sr19710" type="CarDefault" departLane="random" />
	<vehicle id="v9832" depart="262.69" route="sr19711" type="CarDefault" departLane="random" />
	<vehicle id="v8045" depart="268.28" route="sr19709" type="CarDefault" departLane="random" />
	<vehicle id="v8625" depart="268.66" route="sr19710" type="CarDefault" departLane="random" />
	<vehicle id="v9833" depart="268.66" route="sr19711" type="CarDefault" departLane="random" />
	<vehicle id="v8046" depart="274.52" route="sr19709" type="CarDefault" departLane="random" />
	<vehicle id="v8626" depart="274.63" route="sr19710" type="CarDefault" departLane="random" />
	<vehicle id="v9834" depart="274.63" route="sr19711" type="CarDefault" departLane="random" />
	<vehicle id="v8627" depart="280.6" route="sr19710" type="CarDefault" departLane="random" />
	<vehicle id="v9835" depart="280.6" route="sr19711" type="CarDefault" departLane="random" />
	<vehicle id="v8047" depart="280.76" route="sr19709" type="CarDefault" departLane="random" />
	<vehicle id="v8628" depart="286.57" route="sr19710" type="CarDefault" departLane="random" />
	<vehicle id="v9836" depart="286.57" route="sr19711" type="CarDefault" departLane="random" />
	<vehicle id="v8048" depart="287.0" route="sr19709" type="CarDefault" departLane="random" />
	<vehicle id="v8629" depart="292.54" route="sr19710" type="CarDefault" departLane="random" />
	<vehicle id="v9837" depart="292.54" route="sr19711" type="CarDefault" departLane="random" />
	<vehicle id="v8049" depart="293.24" route="sr19709" type="CarDefault" departLane="random" />
	<vehicle id="v8630" depart="298.51" route="sr19710" type="CarDefault" departLane="random" />
	<vehicle id="v9838" depart="298.51" route="sr19711" type="CarDefault" departLane="random" />
	<vehicle id="v8050" depart="299.48" route="sr19709" type="CarDefault" departLane="random" />
	<vehicle id="v8631" depart="304.48" route="sr19710" type="CarDefault" departLane="random" />
	<vehicle id="v9839" depart="304.48" route="sr19711" type="CarDefault" departLane="random" />
	<vehicle id="v8051" depart="305.72" route="sr19709" type="CarDefault" departLane="random" />
	<vehicle id="v8632" depart="310.45" route="sr19710" type="CarDefault" departLane="random" />
	<vehicle id="v9840" depart="310.45" route="sr19711" type="CarDefault" departLane="random" />
	<vehicle id="v8052" depart="311.96" route="sr19709" type="CarDefault" departLane="random" />
	<vehicle id="v8633" depart="316.42" route="sr19710" type="CarDefault" departLane="random" />
	<vehicle id="v9841" depart="316.42" route="sr19711" type="CarDefault" departLane="random" />
	<vehicle id="v8053" depart="318.2" route="sr19709" type="CarDefault" departLane="random" />
	<vehicle id="v8634" depart="322.39" route="sr19710" type="CarDefault" departLane="random" />
	<vehicle id="v9842" depart="322.39" route="sr19711" type="CarDefault" departLane="random" />
	<vehicle id="v7923" depart="323" route="sr19709" type="CarDefault" departLane="random" />
	<vehicle id="v8054" depart="324.44" route="sr19709" type="CarDefault" departLane="random" />
	<vehicle id="v8635" depart="328.36" route="sr19710" type="CarDefault" departLane="random" />
	<vehicle id="v9843" depart="328.36" route="sr19711" type="CarDefault" departLane="random" />
	<vehicle id="v8055" depart="330.68" route="sr19709" type="CarDefault" departLane="random" />
	<vehicle id="v8636" depart="334.33" route="sr19710" type="CarDefault" departLane="random" />
	<vehicle id="v9844" depart="334.33" route="sr19711" type="CarDefault" departLane="random" />
	<vehicle id="v8056" depart="336.92" route="sr19709" type="CarDefault" departLane="random" />
	<vehicle id="v8637" depart="340.3" route="sr19710" type="CarDefault" departLane="random" />
	<vehicle id="v9845" depart="340.3" route="sr19711" type="CarDefault" departLane="random" />
	<vehicle id="v8057" depart="343.15" route="sr19709" type="CarDefault" departLane="random" />
	<vehicle id="v8638" depart="346.27" route="sr19710" type="CarDefault" departLane="random" />
	<vehicle id="v9846" depart="346.27" route="sr19711" type="CarDefault" departLane="random" />
	<vehicle id="v8058" depart="349.39" route="sr19709" type="CarDefault" departLane="random" />
	<vehicle id="v8639" depart="352.24" route="sr19710" type="CarDefault" departLane="random" />
	<vehicle id="v9847" depart="352.24" route="sr19711" type="CarDefault" departLane="random" />
	<vehicle id="v8059" depart="355.63" route="sr19709" type="CarDefault" departLane="random" />
	<vehicle id="v8640" depart="358.21" route="sr19710" type="CarDefault" departLane="random" />
	<vehicle id="v9848" depart="358.21" route="sr19711" type="CarDefault" departLane="random" />
	<vehicle id="v8060" depart="361.87" route="sr19709" type="CarDefault" departLane="random" />
	<vehicle id="v8641" depart="364.18" route="sr19710" type="CarDefault" departLane="random" />
	<vehicle id="v9849" depart="364.18" route="sr19711" type="CarDefault" departLane="random" />
	<vehicle id="v8061" depart="368.11" route="sr19709" type="CarDefault" departLane="random" />
	<vehicle id="v8642" depart="370.15" route="sr19710" type="CarDefault" departLane="random" />
	<vehicle id="v9850" depart="370.15" route="sr19711" type="CarDefault" departLane="random" />
	<vehicle id="v7924" depart="372" route="sr19709" type="CarDefault" departLane="random" />
	<vehicle id="v8062" depart="374.35" route="sr19709" type="CarDefault" departLane="random" />
	<vehicle id="v8643" depart="376.12" route="sr19710" type="CarDefault" departLane="random" />
	<vehicle id="v9851" depart="376.12" route="sr19711" type="CarDefault" departLane="random" />
	<vehicle id="v8063" depart="380.59" route="sr19709" type="CarDefault" departLane="random" />
	<vehicle id="v8644" depart="382.09" route="sr19710" type="CarDefault" departLane="random" />
	<vehicle id="v9852" depart="382.09" route="sr19711" type="CarDefault" departLane="random" />
	<vehicle id="v8064" depart="386.83" route="sr19709" type="CarDefault" departLane="random" />
	<vehicle id="v8645" depart="388.06" route="sr19710" type="CarDefault" departLane="random" />
	<vehicle id="v9853" depart="388.06" route="sr19711" type="CarDefault" departLane="random" />
	<vehicle id="v8065" depart="393.07" route="sr19709" type="CarDefault" departLane="random" />
	<vehicle id="v8646" depart="394.03" route="sr19710" type="CarDefault" departLane="random" />
	<vehicle id="v9854" depart="394.03" route="sr19711" type="CarDefault" departLane="random" />
	<vehicle id="v7925" depart="395" route="sr19709" type="CarDefault" departLane="random" />
	<vehicle id="v8066" depart="399.31" route="sr19709" type="CarDefault" departLane="random" />
	<vehicle id="v8647" depart="400.0" route="sr19710" type="CarDefault" departLane="random" />
	<vehicle id="v9855" depart="400.0" route="sr19711" type="CarDefault" departLane="random" />
	<vehicle id="v8067" depart="405.55" route="sr19709" type="CarDefault" departLane="random" />
	<vehicle id="v8648" depart="405.97" route="sr19710" type="CarDefault" departLane="random" />
	<vehicle id="v9856" depart="405.97" route="sr19711" type="CarDefault" departLane="random" />
	<vehicle id="v8068" depart="411.79" route="sr19709" type="CarDefault" departLane="random" />
	<vehicle id="v8649" depart="411.94" route="sr19710" type="CarDefault" departLane="random" />
	<vehicle id="v9857" depart="411.94" route="sr19711" type="CarDefault" departLane="random" />
	<vehicle id="v8650" depart="417.91" route="sr19710" type="CarDefault" departLane="random" />
	<vehicle id="v9858" depart="417.91" route="sr19711" type="CarDefault" departLane="random" />
	<vehicle id="v8069" depart="418.02" route="sr19709" type="CarDefault" departLane="random" />
	<vehicle id="v8651" depart="423.88" route="sr19710" type="CarDefault" departLane="random" />
	<vehicle id="v9859" depart="423.88" route="sr19711" type="CarDefault" departLane="random" />
	<vehicle id="v8070" depart="424.26" route="sr19709" type="CarDefault" departLane="random" />
	<vehicle id="v8652" depart="429.85" route="sr19710" type="CarDefault" departLane="random" />
	<vehicle id="v9860" depart="429.85" route="sr19711" type="CarDefault" departLane="random" />
	<vehicle id="v7926" depart="430" route="sr19709" type="CarDefault" departLane="random" />
	<vehicle id="v8071" depart="430.5" route="sr19709" type="CarDefault" departLane="random" />
	<vehicle id="v8653" depart="435.82" route="sr19710" type="CarDefault" departLane="random" />
	<vehicle id="v9861" depart="435.82" route="sr19711" type="CarDefault" departLane="random" />
	<vehicle id="v8072" depart="436.74" route="sr19709" type="CarDefault" departLane="random" />
	<vehicle id="v8654" depart="441.79" route="sr19710" type="CarDefault" departLane="random" />
	<vehicle id="v9862" depart="441.79" route="sr19711" type="CarDefault" departLane="random" />
	<vehicle id="v8073" depart="442.98" route="sr19709" type="CarDefault" departLane="random" />
	<vehicle id="v8655" depart="447.76" route="sr19710" type="CarDefault" departLane="random" />
	<vehicle id="v9863" depart="447.76" route="sr19711" type="CarDefault" departLane="random" />
	<vehicle id="v8074" depart="449.22" route="sr19709" type="CarDefault" departLane="random" />
	<vehicle id="v8656" depart="453.73" route="sr19710" type="CarDefault" departLane="random" />
	<vehicle id="v9864" depart="453.73" route="sr19711" type="CarDefault" departLane="random" />
	<vehicle id="v8075" depart="455.46" route="sr19709" type="CarDefault" departLane="random" />
	<vehicle id="v8657" depart="459.7" route="sr19710" type="CarDefault" departLane="random" />
	<vehicle id="v9865" depart="459.7" route="sr19711" type="CarDefault" departLane="random" />
	<vehicle id="v8076" depart="461.7" route="sr19709" type="CarDefault" departLane="random" />
	<vehicle id="v8658" depart="465.67" route="sr19710" type="CarDefault" departLane="random" />
	<vehicle id="v9866" depart="465.67" route="sr19711" type="CarDefault" departLane="random" />
	<vehicle id="v8077" depart="467.94" route="sr19709" type="CarDefault" departLane="random" />
	<vehicle id="v8659" depart="471.64" route="sr19710" type="CarDefault" departLane="random" />
	<vehicle id="v9867" depart="471.64" route="sr19711" type="CarDefault" departLane="random" />
	<vehicle id="v8078" depart="474.18" route="sr19709" type="CarDefault" departLane="random" />
	<vehicle id="v8660" depart="477.61" route="sr19710" type="CarDefault" departLane="random" />
	<vehicle id="v9868" depart="477.61" route="sr19711" type="CarDefault" departLane="random" />
	<vehicle id="v8079" depart="480.42" route="sr19709" type="CarDefault" departLane="random" />
	<vehicle id="v8661" depart="483.58" route="sr19710" type="CarDefault" departLane="random" />
	<vehicle id="v9869" depart="483.58" route="sr19711" type="CarDefault" departLane="random" />
	<vehicle id="v8080" depart="486.66" route="sr19709" type="CarDefault" departLane="random" />
	<vehicle id="v8662" depart="489.55" route="sr19710" type="CarDefault" departLane="random" />
	<vehicle id="v9870" depart="489.55" route="sr19711" type="CarDefault" departLane="random" />
	<vehicle id="v8081" depart="492.89" route="sr19709" type="CarDefault" departLane="random" />
	<vehicle id="v8663" depart="495.52" route="sr19710" type="CarDefault" departLane="random" />
	<vehicle id="v9871" depart="495.52" route="sr19711" type="CarDefault" departLane="random" />
	<vehicle id="v8082" depart="499.13" route="sr19709" type="CarDefault" departLane="random" />
	<vehicle id="v8664" depart="501.49" route="sr19710" type="CarDefault" departLane="random" />
	<vehicle id="v9872" depart="501.49" route="sr19711" type="CarDefault" departLane="random" />
	<vehicle id="v8083" depart="505.37" route="sr19709" type="CarDefault" departLane="random" />
	<vehicle id="v8665" depart="507.46" route="sr19710" type="CarDefault" departLane="random" />
	<vehicle id="v9873" depart="507.46" route="sr19711" type="CarDefault" departLane="random" />
	<vehicle id="v8084" depart="511.61" route="sr19709" type="CarDefault" departLane="random" />
	<vehicle id="v8666" depart="513.43" route="sr19710" type="CarDefault" departLane="random" />
	<vehicle id="v9874" depart="513.43" route="sr19711" type="CarDefault" departLane="random" />
	<vehicle id="v8085" depart="517.85" route="sr19709" type="CarDefault" departLane="random" />
	<vehicle id="v8667" depart="519.4" route="sr19710" type="CarDefault" departLane="random" />
	<vehicle id="v9875" depart="519.4" route="sr19711" type="CarDefault" departLane="random" />
	<vehicle id="v8086" depart="524.09" route="sr19709" type="CarDefault" departLane="random" />
	<vehicle id="v8668" depart="525.37" route="sr19710" type="CarDefault" departLane="random" />
	<vehicle id="v9876" depart="525.37" route="sr19711" type="CarDefault" departLane="random" />
	<vehicle id="v8087" depart="530.33" route="sr19709" type="CarDefault" departLane="random" />
	<vehicle id="v8669" depart="531.34" route="sr19710" type="CarDefault" departLane="random" />
	<vehicle id="v9877" depart="531.34" route="sr19711" type="CarDefault" departLane="random" />
	<vehicle id="v8088" depart="536.57" route="sr19709" type="CarDefault" departLane="random" />
	<vehicle id="v8670" depart="537.31" route="sr19710" type="CarDefault" departLane="random" />
	<vehicle id="v9878" depart="537.31" route="sr19711" type="CarDefault" departLane="random" />
	<vehicle id="v8089" depart="542.81" route="sr19709" type="CarDefault" departLane="random" />
	<vehicle id="v8671" depart="543.28" route="sr19710" type="CarDefault" departLane="random" />
	<vehicle id="v9879" depart="543.28" route="sr19711" type="CarDefault" departLane="random" />
	<vehicle id="v7927" depart="548" route="sr19709" type="CarDefault" departLane="random" />
	<vehicle id="v8090" depart="549.05" route="sr19709" type="CarDefault" departLane="random" />
	<vehicle id="v8672" depart="549.25" route="sr19710" type="CarDefault" departLane="random" />
	<vehicle id="v9880" depart="549.25" route="sr19711" type="CarDefault" departLane="random" />
	<vehicle id="v8673" depart="555.22" route="sr19710" type="CarDefault" departLane="random" />
	<vehicle id="v9881" depart="555.22" route="sr19711" type="CarDefault" departLane="random" />
	<vehicle id="v8091" depart="555.29" route="sr19709" type="CarDefault" departLane="random" />
	<vehicle id="v8674" depart="561.19" route="sr19710" type="CarDefault" departLane="random" />
	<vehicle id="v9882" depart="561.19" route="sr19711" type="CarDefault" departLane="random" />
	<vehicle id="v8092" depart="561.53" route="sr19709" type="CarDefault" departLane="random" />
	<vehicle id="v8675" depart="567.16" route="sr19710" type="CarDefault" departLane="random" />
	<vehicle id="v9883" depart="567.16" route="sr19711" type="CarDefault" departLane="random" />
	<vehicle id="v8093" depart="567.76" route="sr19709" type="CarDefault" departLane="random" />
	<vehicle id="v8676" depart="573.13" route="sr19710" type="CarDefault" departLane="random" />
	<vehicle id="v9884" depart="573.13" route="sr19711" type="CarDefault" departLane="random" />
	<vehicle id="v8094" depart="574.0" route="sr19709" type="CarDefault" departLane="random" />
	<vehicle id="v8677" depart="579.1" route="sr19710" type="CarDefault" departLane="random" />
	<vehicle id="v9885" depart="579.1" route="sr19711" type="CarDefault" departLane="random" />
	<vehicle id="v8095" depart="580.24" route="sr19709" type="CarDefault" departLane="random" />
	<vehicle id="v8678" depart="585.07" route="sr19710" type="CarDefault" departLane="random" />
	<vehicle id="v9886" depart="585.07" route="sr19711" type="CarDefault" departLane="random" />
	<vehicle id="v8096" depart="586.48" route="sr19709" type="CarDefault" departLane="random" />
	<vehicle id="v7928" depart="588" route="sr19709" type="CarDefault" departLane="random" />
	<vehicle id="v8679" depart="591.04" route="sr19710" type="CarDefault" departLane="random" />
	<vehicle id="v9887" depart="591.04" route="sr19711" type="CarDefault" departLane="random" />
	<vehicle id="v8097" depart="592.72" route="sr19709" type="CarDefault" departLane="random" />
	<vehicle id="v8680" depart="597.01" route="sr19710" type="CarDefault" departLane="random" />
	<vehicle id="v9888" depart="597.01" route="sr19711" type="CarDefault" departLane="random" />
	<vehicle id="v8098" depart="598.96" route="sr19709" type="CarDefault" departLane="random" />
	<vehicle id="v8789" depart="602" route="sr19710" type="CarDefault" departLane="random" />
	<vehicle id="v8681" depart="602.99" route="sr19710" type="CarDefault" departLane="random" />
	<vehicle id="v9889" depart="602.99" route="sr19711" type="CarDefault" departLane="random" />