<?xml version='1.0' encoding='utf-8'?>
<net xmlns:xsi="http://www.w3.org/2001/XMLSchema-instance" version="1.9" junctionCornerDetail="5" limitTurnSpeed="5.50" xsi:noNamespaceSchemaLocation="http://sumo.dlr.de/xsd/net_file.xsd">
	<location netOffset="-336586.08,3754670.31" convBoundary="75.04,49.91,2071.19,2139.47" origBoundary="151.232525,-33.920080,151.266296,-33.899237" projParameter="+proj=utm +zone=56 +ellps=WGS84 +datum=WGS84 +units=m +no_defs" />
	<subgraphs>
		<subgraph id="sg0" from_junction="87" to_junction="358" edges="525,124,538,892,413,584,745,225,316,132,739,406,112,619,527,909,969,893,502,23,583,137,621,317,908,228,22,140,1012,116,1031,13,505,837,617,433,115,523,144,139,138,963,774,29,608,62,1032,1010,509,515,504,407,1030,915,229,627,401,1029,742,741,457,503,629,524,24,886,371,405,1028,432,412,793,962,630,44,631,526,123,224,1009,506,615,152,443,323,972,740,481,84,336,616,415,657,114,69,508,478,916,889,516,510,226,394,649,233,507,444,628" />
		<subgraph id="sg1" from_junction="292" to_junction="248" edges="1004,730,599,721,89,967,866,192,833,6,1005,480,245,929,7,768,1021,254,698,52,552,551,190,496,725,217,887,1019,284,885,968,713,262,189,230,479,128,483,135,794,268,97,102,539,386,86,921,928,937,136,544,924,498,898,107,335,34,423,56,47,784,796,806,919,77,923,55,1007,709,407,92,269,708,383,1003,699,512,371,891,632,934,944,511,933,807,808,762,237,87,970,578,76,99,711,574,384,250,577,426,884,46,997,263,482,712,894,103,385,425,1020,513,283,382,1006,834,289,244,958,98,1018,957,252,714,93,311,858,267,74,35,960,797,792,543,922,920,890,54,550,947,746,285,424,342,487,286,936,932,695,707,266,290,75,545,1017,686,1022,471,915,961,706,791,170,769,935,795,104,375,859,829,867,499,253,380,878,236,134,345,1002,972,101,926,53,592,766,334,950,133,500,5,869,710,587,763,439" />
		<subgraph id="sg2" from_junction="357" to_junction="248" edges="1004,89,871,721,730,870,967,15,192,1005,866,132,976,480,245,929,7,768,488,1021,254,476,698,552,551,190,217,984,502,725,968,1019,284,546,885,83,18,262,230,479,128,483,135,102,97,743,549,268,539,86,928,937,136,13,129,541,498,898,989,107,335,34,423,47,774,784,430,796,608,56,38,806,77,55,1007,521,709,92,269,708,1003,699,512,371,891,405,632,14,934,944,511,933,807,210,126,762,808,237,615,87,305,970,578,76,99,711,514,415,384,250,577,341,426,884,46,361,263,482,131,712,744,894,103,385,425,745,125,1020,990,513,283,382,1006,112,244,958,957,1018,98,252,11,955,93,311,858,267,74,583,956,35,960,797,792,543,922,12,890,985,550,746,127,489,285,424,342,487,286,936,2,111,932,547,963,110,695,266,707,75,62,1017,545,686,1022,961,706,627,742,791,975,741,170,769,886,935,104,795,375,859,962,867,499,253,878,236,134,345,1002,972,825,315,101,548,84,17,616,16,592,766,130,334,950,394,133,500,5,869,710,520,233,587,614,763,439,628" />
	</subgraphs>
	<type id="highway.bridleway" priority="1" numLanes="1" speed="2.78" allow="pedestrian" oneway="1" width="2.00" />
	<type id="highway.bus_guideway" priority="1" numLanes="1" speed="27.78" allow="bus" oneway="1" />
	<type id="highway.cycleway" priority="1" numLanes="1" speed="8.33" allow="bicycle" oneway="0" width="1.00" />
	<type id="highway.footway" priority="1" numLanes="1" speed="2.78" allow="pedestrian" oneway="1" width="2.00" />
	<type id="highway.ford" priority="1" numLanes="1" speed="2.78" allow="army" oneway="0" />
	<type id="highway.living_street" priority="2" numLanes="1" speed="2.78" disallow="tram rail_urban rail rail_electric rail_fast ship" oneway="0" />
	<type id="highway.motorway" priority="14" numLanes="2" speed="39.44" allow="private emergency authority army vip passenger hov taxi bus coach delivery truck trailer motorcycle evehicle custom1 custom2" oneway="1" />
	<type id="highway.motorway_link" priority="9" numLanes="1" speed="22.22" allow="private emergency authority army vip passenger hov taxi bus coach delivery truck trailer motorcycle evehicle custom1 custom2" oneway="1" />
	<type id="highway.path" priority="1" numLanes="1" speed="2.78" allow="pedestrian bicycle" oneway="0" width="2.00" />
	<type id="highway.pedestrian" priority="1" numLanes="1" speed="2.78" allow="pedestrian" oneway="1" width="2.00" />
	<type id="highway.primary" priority="12" numLanes="2" speed="27.78" disallow="tram rail_urban rail rail_electric rail_fast ship" oneway="0" />
	<type id="highway.primary_link" priority="7" numLanes="1" speed="22.22" disallow="tram rail_urban rail rail_electric rail_fast ship" oneway="0" />
	<type id="highway.raceway" priority="15" numLanes="2" speed="83.33" allow="vip" oneway="0" />
	<type id="highway.residential" priority="3" numLanes="1" speed="13.89" disallow="tram rail_urban rail rail_electric rail_fast ship" oneway="0" />
	<type id="highway.secondary" priority="11" numLanes="1" speed="27.78" disallow="tram rail_urban rail rail_electric rail_fast ship" oneway="0" />
	<type id="highway.secondary_link" priority="6" numLanes="1" speed="22.22" disallow="tram rail_urban rail rail_electric rail_fast ship" oneway="0" />
	<type id="highway.service" priority="1" numLanes="1" speed="5.56" allow="pedestrian delivery bicycle" oneway="0" />
	<type id="highway.stairs" priority="1" numLanes="1" speed="1.39" allow="pedestrian" oneway="1" width="2.00" />
	<type id="highway.step" priority="1" numLanes="1" speed="1.39" allow="pedestrian" oneway="1" width="2.00" />
	<type id="highway.steps" priority="1" numLanes="1" speed="1.39" allow="pedestrian" oneway="1" width="2.00" />
	<type id="highway.tertiary" priority="10" numLanes="1" speed="22.22" disallow="tram rail_urban rail rail_electric rail_fast ship" oneway="0" />
	<type id="highway.tertiary_link" priority="5" numLanes="1" speed="22.22" disallow="tram rail_urban rail rail_electric rail_fast ship" oneway="0" />
	<type id="highway.track" priority="1" numLanes="1" speed="5.56" allow="pedestrian motorcycle moped bicycle" oneway="0" />
	<type id="highway.trunk" priority="13" numLanes="2" speed="27.78" disallow="pedestrian bicycle tram rail_urban rail rail_electric rail_fast ship" oneway="0" />
	<type id="highway.trunk_link" priority="8" numLanes="1" speed="22.22" disallow="pedestrian bicycle tram rail_urban rail rail_electric rail_fast ship" oneway="0" />
	<type id="highway.unclassified" priority="4" numLanes="1" speed="13.89" disallow="tram rail_urban rail rail_electric rail_fast ship" oneway="0" />
	<type id="highway.unsurfaced" priority="1" numLanes="1" speed="8.33" disallow="tram rail_urban rail rail_electric rail_fast ship" oneway="0" />
	<type id="railway.highspeed" priority="21" numLanes="1" speed="69.44" allow="rail_fast" oneway="1" />
	<type id="railway.light_rail" priority="19" numLanes="1" speed="27.78" allow="rail_urban" oneway="1" />
	<type id="railway.preserved" priority="16" numLanes="1" speed="27.78" allow="rail" oneway="1" />
	<type id="railway.rail" priority="20" numLanes="1" speed="44.44" allow="rail" oneway="1" />
	<type id="railway.subway" priority="18" numLanes="1" speed="27.78" allow="rail_urban" oneway="1" />
	<type id="railway.tram" priority="17" numLanes="1" speed="13.89" allow="tram" oneway="1" />
	<edge id=":1_0" function="internal">
		<lane id=":1_0_0" index="0" disallow="tram rail_urban rail rail_electric rail_fast ship" speed="3.93" length="3.39" shape="1578.29,1025.21 1578.23,1026.20 1578.52,1026.84 1579.16,1027.14 1580.15,1027.10" />
	</edge>
	<edge id=":101_0" function="internal">
		<lane id=":101_0_0" index="0" disallow="tram rail_urban rail rail_electric rail_fast ship" speed="3.90" length="2.59" shape="1705.83,591.53 1705.84,592.24 1705.63,592.79 1705.18,593.16 1704.50,593.37" />
	</edge>
	<edge id=":102_0" function="internal">
		<lane id=":102_0_0" index="0" disallow="tram rail_urban rail rail_electric rail_fast ship" speed="3.90" length="2.63" shape="1143.35,483.49 1143.38,484.21 1143.17,484.76 1142.72,485.15 1142.03,485.36" />
	</edge>
	<edge id=":104_0" function="internal">
		<lane id=":104_0_0" index="0" disallow="tram rail_urban rail rail_electric rail_fast ship" speed="13.89" length="9.40" shape="1535.65,379.50 1537.15,388.77" />
	</edge>
	<edge id=":104_1" function="internal">
		<lane id=":104_1_0" index="0" disallow="tram rail_urban rail rail_electric rail_fast ship" speed="6.08" length="7.77" shape="1535.65,379.50 1535.90,382.25 1535.63,384.29 1534.86,385.60 1533.57,386.20" />
	</edge>
	<edge id=":104_2" function="internal">
		<lane id=":104_2_0" index="0" disallow="tram rail_urban rail rail_electric rail_fast ship" speed="6.10" length="7.76" shape="1533.08,383.04 1534.48,383.22 1535.63,384.24 1536.52,386.09 1537.15,388.77" />
	</edge>
	<edge id=":104_3" function="internal">
		<lane id=":104_3_0" index="0" disallow="tram rail_urban rail rail_electric rail_fast ship" speed="3.65" length="4.67" shape="1533.08,383.04 1534.39,383.65 1534.90,384.38 1534.63,385.23 1533.57,386.20" />
	</edge>
	<edge id=":107_0" function="internal">
		<lane id=":107_0_0" index="0" disallow="tram rail_urban rail rail_electric rail_fast ship" speed="13.89" length="0.30" shape="948.66,199.83 948.37,199.89" />
	</edge>
	<edge id=":109_0" function="internal">
		<lane id=":109_0_0" index="0" disallow="tram rail_urban rail rail_electric rail_fast ship" speed="3.90" length="2.59" shape="1139.50,453.78 1138.83,454.01 1138.39,454.39 1138.18,454.94 1138.21,455.65" />
	</edge>
	<edge id=":112_0" function="internal">
		<lane id=":112_0_0" index="0" disallow="tram rail_urban rail rail_electric rail_fast ship" speed="6.48" length="9.03" shape="1414.69,303.42 1412.32,304.16 1410.78,305.49 1410.05,307.39 1410.14,309.87" />
	</edge>
	<edge id=":112_1" function="internal">
		<lane id=":112_1_0" index="0" disallow="tram rail_urban rail rail_electric rail_fast ship" speed="13.89" length="11.18" shape="1414.69,303.42 1403.65,305.20" />
	</edge>
	<edge id=":113_0" function="internal">
		<lane id=":113_0_0" index="0" disallow="tram rail_urban rail rail_electric rail_fast ship" speed="27.78" length="0.30" shape="1492.91,114.40 1492.95,114.70" />
	</edge>
	<edge id=":116_0" function="internal">
		<lane id=":116_0_0" index="0" disallow="tram rail_urban rail rail_electric rail_fast ship" speed="13.89" length="0.29" shape="447.16,625.26 447.22,625.54" />
	</edge>
	<edge id=":117_0" function="internal">
		<lane id=":117_0_0" index="0" disallow="tram rail_urban rail rail_electric rail_fast ship" speed="6.37" length="9.04" shape="1470.06,644.17 1469.31,641.78 1467.98,640.26 1466.07,639.60 1463.58,639.81" />
	</edge>
	<edge id=":117_1" function="internal">
		<lane id=":117_1_0" index="0" disallow="tram rail_urban rail rail_electric rail_fast ship" speed="8.28" length="14.27" shape="1470.06,644.17 1469.94,640.20 1471.03,637.08 1473.31,634.79 1476.79,633.35" />
	</edge>
	<edge id=":117_2" function="internal">
		<lane id=":117_2_0" index="0" disallow="tram rail_urban rail rail_electric rail_fast ship" speed="3.65" length="4.67" shape="1470.06,644.17 1470.65,642.85 1471.38,642.33 1472.23,642.60 1473.22,643.65" />
	</edge>
	<edge id=":117_3" function="internal">
		<lane id=":117_3_0" index="0" disallow="tram rail_urban rail rail_electric rail_fast ship" speed="6.84" length="9.42" shape="1477.57,636.46 1475.31,637.40 1473.83,638.92 1473.13,641.00 1473.22,643.65" />
	</edge>
	<edge id=":117_4" function="internal">
		<lane id=":117_4_0" index="0" disallow="tram rail_urban rail rail_electric rail_fast ship" speed="27.78" length="14.39" shape="1477.57,636.46 1463.58,639.81" />
	</edge>
	<edge id=":117_5" function="internal">
		<lane id=":117_5_0" index="0" disallow="tram rail_urban rail rail_electric rail_fast ship" speed="3.65" length="1.44" shape="1477.57,636.46 1476.21,635.97" />
	</edge>
	<edge id=":117_9" function="internal">
		<lane id=":117_9_0" index="0" disallow="tram rail_urban rail rail_electric rail_fast ship" speed="3.65" length="3.23" shape="1476.21,635.97 1475.63,635.29 1475.82,634.42 1476.79,633.35" />
	</edge>
	<edge id=":117_6" function="internal">
		<lane id=":117_6_0" index="0" disallow="tram rail_urban rail rail_electric rail_fast ship" speed="27.78" length="14.32" shape="1462.86,636.69 1476.79,633.35" />
	</edge>
	<edge id=":117_7" function="internal">
		<lane id=":117_7_0" index="0" disallow="tram rail_urban rail rail_electric rail_fast ship" speed="7.89" length="4.00" shape="1462.86,636.69 1466.85,636.36" />
	</edge>
	<edge id=":117_8" function="internal">
		<lane id=":117_8_0" index="0" disallow="tram rail_urban rail rail_electric rail_fast ship" speed="3.65" length="1.44" shape="1462.86,636.69 1464.21,637.20" />
	</edge>
	<edge id=":117_10" function="internal">
		<lane id=":117_10_0" index="0" disallow="tram rail_urban rail rail_electric rail_fast ship" speed="7.89" length="10.45" shape="1466.85,636.36 1469.90,637.41 1472.02,639.84 1473.22,643.65" />
	</edge>
	<edge id=":117_11" function="internal">
		<lane id=":117_11_0" index="0" disallow="tram rail_urban rail rail_electric rail_fast ship" speed="3.65" length="3.23" shape="1464.21,637.20 1464.78,637.89 1464.57,638.76 1463.58,639.81" />
	</edge>
	<edge id=":124_0" function="internal">
		<lane id=":124_0_0" index="0" disallow="tram rail_urban rail rail_electric rail_fast ship" speed="27.78" length="0.30" shape="1389.74,676.37 1389.48,676.53" />
	</edge>
	<edge id=":124_1" function="internal">
		<lane id=":124_1_0" index="0" disallow="tram rail_urban rail rail_electric rail_fast ship" speed="3.65" length="2.34" shape="1389.74,676.37 1388.30,676.35 1387.52,675.90" />
	</edge>
	<edge id=":124_4" function="internal">
		<lane id=":124_4_0" index="0" disallow="tram rail_urban rail rail_electric rail_fast ship" speed="3.65" length="2.34" shape="1387.52,675.90 1387.42,675.01 1387.99,673.69" />
	</edge>
	<edge id=":124_2" function="internal">
		<lane id=":124_2_0" index="0" disallow="tram rail_urban rail rail_electric rail_fast ship" speed="27.78" length="0.29" shape="1387.75,673.85 1387.99,673.69" />
	</edge>
	<edge id=":124_3" function="internal">
		<lane id=":124_3_0" index="0" disallow="tram rail_urban rail rail_electric rail_fast ship" speed="3.65" length="2.34" shape="1387.75,673.85 1389.19,673.87 1389.96,674.32" />
	</edge>
	<edge id=":124_5" function="internal">
		<lane id=":124_5_0" index="0" disallow="tram rail_urban rail rail_electric rail_fast ship" speed="3.65" length="2.34" shape="1389.96,674.32 1390.06,675.21 1389.48,676.53" />
	</edge>
	<edge id=":127_0" function="internal">
		<lane id=":127_0_0" index="0" disallow="tram rail_urban rail rail_electric rail_fast ship" speed="6.50" length="9.06" shape="1537.37,354.81 1535.00,355.54 1533.43,356.85 1532.66,358.75 1532.71,361.23" />
	</edge>
	<edge id=":127_1" function="internal">
		<lane id=":127_1_0" index="0" disallow="tram rail_urban rail rail_electric rail_fast ship" speed="7.99" length="14.22" shape="1537.37,354.81 1533.47,354.86 1530.49,353.66 1528.44,351.19 1527.32,347.46" />
	</edge>
	<edge id=":127_2" function="internal">
		<lane id=":127_2_0" index="0" disallow="tram rail_urban rail rail_electric rail_fast ship" speed="3.65" length="4.67" shape="1537.37,354.81 1536.06,354.21 1535.54,353.48 1535.81,352.63 1536.87,351.65" />
	</edge>
	<edge id=":127_3" function="internal">
		<lane id=":127_3_0" index="0" disallow="tram rail_urban rail rail_electric rail_fast ship" speed="6.49" length="9.03" shape="1530.49,346.98 1531.20,349.35 1532.50,350.92 1534.39,351.68 1536.87,351.65" />
	</edge>
	<edge id=":127_4" function="internal">
		<lane id=":127_4_0" index="0" disallow="tram rail_urban rail rail_electric rail_fast ship" speed="20.84" length="14.42" shape="1530.49,346.98 1532.71,361.23" />
	</edge>
	<edge id=":127_5" function="internal">
		<lane id=":127_5_0" index="0" disallow="tram rail_urban rail rail_electric rail_fast ship" speed="3.65" length="4.67" shape="1530.49,346.98 1529.88,348.29 1529.14,348.80 1528.29,348.53 1527.32,347.46" />
	</edge>
	<edge id=":129_0" function="internal">
		<lane id=":129_0_0" index="0" disallow="tram rail_urban rail rail_electric rail_fast ship" speed="22.22" length="0.10" shape="1918.41,1529.81 1918.47,1529.86" />
	</edge>
	<edge id=":130_0" function="internal">
		<lane id=":130_0_0" index="0" disallow="tram rail_urban rail rail_electric rail_fast ship" speed="3.91" length="3.02" shape="1834.01,1082.28 1834.74,1081.83 1835.39,1081.77 1835.97,1082.08 1836.46,1082.78" />
	</edge>
	<edge id=":132_0" function="internal">
		<lane id=":132_0_0" index="0" disallow="tram rail_urban rail rail_electric rail_fast ship" speed="6.05" length="9.07" shape="1771.55,1106.79 1772.31,1109.25 1773.65,1110.68 1775.57,1111.07 1778.06,1110.42" />
	</edge>
	<edge id=":132_1" function="internal">
		<lane id=":132_1_0" index="0" disallow="tram rail_urban rail rail_electric rail_fast ship" speed="27.78" length="13.35" shape="1771.55,1106.79 1771.70,1110.92 1771.07,1113.99 1770.39,1116.77 1770.39,1119.99" />
	</edge>
	<edge id=":132_2" function="internal">
		<lane id=":132_2_0" index="0" disallow="tram rail_urban rail rail_electric rail_fast ship" speed="15.28" length="15.10" shape="1763.92,1115.68 1767.53,1114.63 1771.09,1113.33 1774.59,1111.89 1778.06,1110.42" />
	</edge>
	<edge id=":132_3" function="internal">
		<lane id=":132_3_0" index="0" disallow="tram rail_urban rail rail_electric rail_fast ship" speed="6.34" length="9.04" shape="1763.92,1115.68 1766.42,1115.44 1768.33,1116.08 1769.65,1117.60 1770.39,1119.99" />
	</edge>
	<edge id=":135_0" function="internal">
		<lane id=":135_0_0" index="0" disallow="tram rail_urban rail rail_electric rail_fast ship" speed="6.51" length="9.03" shape="1845.85,1202.36 1843.48,1203.11 1841.93,1204.43 1841.18,1206.32 1841.23,1208.80" />
	</edge>
	<edge id=":135_1" function="internal">
		<lane id=":135_1_0" index="0" disallow="tram rail_urban rail rail_electric rail_fast ship" speed="13.89" length="11.20" shape="1845.85,1202.36 1834.79,1204.18" />
	</edge>
	<edge id=":135_2" function="internal">
		<lane id=":135_2_0" index="0" disallow="tram rail_urban rail rail_electric rail_fast ship" speed="7.33" length="2.51" shape="1834.28,1201.02 1836.78,1201.16" />
	</edge>
	<edge id=":135_3" function="internal">
		<lane id=":135_3_0" index="0" disallow="tram rail_urban rail rail_electric rail_fast ship" speed="3.65" length="1.44" shape="1834.28,1201.02 1835.59,1201.61" />
	</edge>
	<edge id=":135_4" function="internal">
		<lane id=":135_4_0" index="0" disallow="tram rail_urban rail rail_electric rail_fast ship" speed="7.33" length="9.22" shape="1836.78,1201.16 1838.78,1202.51 1840.26,1205.05 1841.23,1208.80" />
	</edge>
	<edge id=":135_5" function="internal">
		<lane id=":135_5_0" index="0" disallow="tram rail_urban rail rail_electric rail_fast ship" speed="3.65" length="3.23" shape="1835.59,1201.61 1836.11,1202.34 1835.85,1203.19 1834.79,1204.18" />
	</edge>
	<edge id=":136_0" function="internal">
		<lane id=":136_0_0" index="0" disallow="tram rail_urban rail rail_electric rail_fast ship" speed="22.23" length="8.26" shape="1765.00,1086.42 1765.98,1088.71 1767.35,1090.01 1768.68,1091.31 1769.53,1093.63" />
		<lane id=":136_0_1" index="1" disallow="tram rail_urban rail rail_electric rail_fast ship" speed="22.23" length="8.26" shape="1765.00,1086.42 1766.37,1094.10" />
	</edge>
	<edge id=":137_0" function="internal">
		<lane id=":137_0_0" index="0" disallow="tram rail_urban rail rail_electric rail_fast ship" speed="13.89" length="0.30" shape="1722.56,1443.62 1722.85,1443.62" />
	</edge>
	<edge id=":139_0" function="internal">
		<lane id=":139_0_0" index="0" disallow="tram rail_urban rail rail_electric rail_fast ship" speed="22.22" length="9.33" shape="1979.60,1667.94 1981.16,1677.13" />
	</edge>
	<edge id=":139_1" function="internal">
		<lane id=":139_1_0" index="0" disallow="tram rail_urban rail rail_electric rail_fast ship" speed="6.06" length="7.80" shape="1979.60,1667.94 1979.80,1670.70 1979.49,1672.74 1978.67,1674.04 1977.35,1674.60" />
	</edge>
	<edge id=":139_2" function="internal">
		<lane id=":139_2_0" index="0" disallow="tram rail_urban rail rail_electric rail_fast ship" speed="6.22" length="7.76" shape="1976.95,1671.43 1978.34,1671.64 1979.51,1672.66 1980.45,1674.49 1981.16,1677.13" />
	</edge>
	<edge id=":139_3" function="internal">
		<lane id=":139_3_0" index="0" disallow="tram rail_urban rail rail_electric rail_fast ship" speed="3.65" length="4.67" shape="1976.95,1671.43 1978.24,1672.07 1978.73,1672.81 1978.44,1673.66 1977.35,1674.60" />
	</edge>
	<edge id=":140_0" function="internal">
		<lane id=":140_0_0" index="0" disallow="tram rail_urban rail rail_electric rail_fast ship" speed="7.34" length="2.50" shape="1522.74,1640.95 1522.91,1638.45" />
	</edge>
	<edge id=":140_1" function="internal">
		<lane id=":140_1_0" index="0" disallow="tram rail_urban rail rail_electric rail_fast ship" speed="3.65" length="1.44" shape="1522.74,1640.95 1523.35,1639.64" />
	</edge>
	<edge id=":140_4" function="internal">
		<lane id=":140_4_0" index="0" disallow="tram rail_urban rail rail_electric rail_fast ship" speed="7.34" length="9.23" shape="1522.91,1638.45 1524.27,1636.47 1526.83,1635.00 1530.58,1634.05" />
	</edge>
	<edge id=":140_5" function="internal">
		<lane id=":140_5_0" index="0" disallow="tram rail_urban rail rail_electric rail_fast ship" speed="3.65" length="3.23" shape="1523.35,1639.64 1524.07,1639.12 1524.93,1639.40 1525.90,1640.46" />
	</edge>
	<edge id=":140_2" function="internal">
		<lane id=":140_2_0" index="0" disallow="tram rail_urban rail rail_electric rail_fast ship" speed="6.50" length="9.03" shape="1524.19,1629.39 1524.91,1631.76 1526.22,1633.33 1528.11,1634.09 1530.58,1634.05" />
	</edge>
	<edge id=":140_3" function="internal">
		<lane id=":140_3_0" index="0" disallow="tram rail_urban rail rail_electric rail_fast ship" speed="13.89" length="11.20" shape="1524.19,1629.39 1525.90,1640.46" />
	</edge>
	<edge id=":142_0" function="internal">
		<lane id=":142_0_0" index="0" disallow="tram rail_urban rail rail_electric rail_fast ship" speed="10.69" length="4.87" shape="2069.55,1337.10 2069.83,1338.45 2069.67,1339.41 2069.29,1340.40 2068.91,1341.80" />
	</edge>
	<edge id=":143_0" function="internal">
		<lane id=":143_0_0" index="0" disallow="tram rail_urban rail rail_electric rail_fast ship" speed="11.11" length="0.29" shape="2008.72,1479.46 2008.60,1479.72" />
	</edge>
	<edge id=":145_0" function="internal">
		<lane id=":145_0_0" index="0" disallow="tram rail_urban rail rail_electric rail_fast ship" speed="6.51" length="9.00" shape="1866.36,1361.51 1867.10,1363.87 1868.42,1365.42 1870.31,1366.18 1872.77,1366.14" />
	</edge>
	<edge id=":145_1" function="internal">
		<lane id=":145_1_0" index="0" disallow="tram rail_urban rail rail_electric rail_fast ship" speed="7.31" length="11.69" shape="1866.36,1361.51 1866.64,1365.36 1866.05,1368.23 1864.59,1370.13 1862.27,1371.06" />
	</edge>
	<edge id=":145_2" function="internal">
		<lane id=":145_2_0" index="0" disallow="tram rail_urban rail rail_electric rail_fast ship" speed="13.89" length="11.15" shape="1861.76,1367.90 1872.77,1366.14" />
	</edge>
	<edge id=":145_3" function="internal">
		<lane id=":145_3_0" index="0" disallow="tram rail_urban rail rail_electric rail_fast ship" speed="3.65" length="1.23" shape="1861.76,1367.90 1862.88,1368.42" />
	</edge>
	<edge id=":145_4" function="internal">
		<lane id=":145_4_0" index="0" disallow="tram rail_urban rail rail_electric rail_fast ship" speed="3.65" length="3.44" shape="1862.88,1368.42 1863.07,1368.50 1863.59,1369.23 1863.32,1370.08 1862.27,1371.06" />
	</edge>
	<edge id=":146_0" function="internal">
		<lane id=":146_0_0" index="0" disallow="tram rail_urban rail rail_electric rail_fast ship" speed="13.89" length="0.10" shape="1974.70,1349.79 1974.70,1349.79" />
	</edge>
	<edge id=":147_0" function="internal">
		<lane id=":147_0_0" index="0" disallow="tram rail_urban rail rail_electric rail_fast ship" speed="3.91" length="2.53" shape="1873.38,1196.27 1873.37,1196.96 1873.15,1197.49 1872.71,1197.86 1872.05,1198.07" />
	</edge>
	<edge id=":148_0" function="internal">
		<lane id=":148_0_0" index="0" disallow="tram rail_urban rail rail_electric rail_fast ship" speed="6.48" length="9.08" shape="1767.17,1447.86 1767.49,1445.37 1768.53,1443.60 1770.27,1442.55 1772.74,1442.22" />
	</edge>
	<edge id=":148_1" function="internal">
		<lane id=":148_1_0" index="0" disallow="tram rail_urban rail rail_electric rail_fast ship" speed="13.89" length="11.92" shape="1761.47,1442.41 1764.52,1441.80 1766.78,1440.63 1769.22,1439.50 1772.77,1439.02" />
	</edge>
	<edge id=":152_0" function="internal">
		<lane id=":152_0_0" index="0" disallow="tram rail_urban rail rail_electric rail_fast ship" speed="13.89" length="14.40" shape="356.83,1065.69 354.76,1051.44" />
	</edge>
	<edge id=":152_1" function="internal">
		<lane id=":152_1_0" index="0" disallow="tram rail_urban rail rail_electric rail_fast ship" speed="8.00" length="4.07" shape="356.83,1065.69 356.82,1061.80 356.89,1061.64" />
	</edge>
	<edge id=":152_2" function="internal">
		<lane id=":152_2_0" index="0" disallow="tram rail_urban rail rail_electric rail_fast ship" speed="3.65" length="1.44" shape="356.83,1065.69 357.45,1064.39" />
	</edge>
	<edge id=":152_9" function="internal">
		<lane id=":152_9_0" index="0" disallow="tram rail_urban rail rail_electric rail_fast ship" speed="8.00" length="10.13" shape="356.89,1061.64 358.06,1058.84 360.55,1056.82 364.28,1055.72" />
	</edge>
	<edge id=":152_10" function="internal">
		<lane id=":152_10_0" index="0" disallow="tram rail_urban rail rail_electric rail_fast ship" speed="3.65" length="3.23" shape="357.45,1064.39 358.18,1063.88 359.03,1064.16 360.00,1065.23" />
	</edge>
	<edge id=":152_3" function="internal">
		<lane id=":152_3_0" index="0" disallow="tram rail_urban rail rail_electric rail_fast ship" speed="6.50" length="9.03" shape="364.74,1058.89 362.36,1059.59 360.78,1060.87 359.99,1062.76 360.00,1065.23" />
	</edge>
	<edge id=":152_4" function="internal">
		<lane id=":152_4_0" index="0" disallow="tram rail_urban rail rail_electric rail_fast ship" speed="8.01" length="14.19" shape="364.74,1058.89 360.85,1058.89 357.89,1057.65 355.86,1055.17 354.76,1051.44" />
	</edge>
	<edge id=":152_5" function="internal">
		<lane id=":152_5_0" index="0" disallow="tram rail_urban rail rail_electric rail_fast ship" speed="3.65" length="4.67" shape="364.74,1058.89 363.44,1058.27 362.93,1057.53 363.21,1056.69 364.28,1055.72" />
	</edge>
	<edge id=":152_6" function="internal">
		<lane id=":152_6_0" index="0" disallow="tram rail_urban rail rail_electric rail_fast ship" speed="6.51" length="9.04" shape="357.93,1050.98 358.63,1053.35 359.92,1054.94 361.81,1055.73 364.28,1055.72" />
	</edge>
	<edge id=":152_7" function="internal">
		<lane id=":152_7_0" index="0" disallow="tram rail_urban rail rail_electric rail_fast ship" speed="13.89" length="14.40" shape="357.93,1050.98 360.00,1065.23" />
	</edge>
	<edge id=":152_8" function="internal">
		<lane id=":152_8_0" index="0" disallow="tram rail_urban rail rail_electric rail_fast ship" speed="3.65" length="1.44" shape="357.93,1050.98 357.31,1052.28" />
	</edge>
	<edge id=":152_11" function="internal">
		<lane id=":152_11_0" index="0" disallow="tram rail_urban rail rail_electric rail_fast ship" speed="3.65" length="3.23" shape="357.31,1052.28 356.58,1052.79 355.73,1052.51 354.76,1051.44" />
	</edge>
	<edge id=":154_0" function="internal">
		<lane id=":154_0_0" index="0" disallow="tram rail_urban rail rail_electric rail_fast ship" speed="27.78" length="0.95" shape="535.65,1825.31 535.49,1825.09 535.40,1824.92 535.35,1824.73 535.33,1824.45" />
	</edge>
	<edge id=":155_0" function="internal">
		<lane id=":155_0_0" index="0" disallow="tram rail_urban rail rail_electric rail_fast ship" speed="15.28" length="0.30" shape="581.02,1198.51 580.71,1198.55" />
	</edge>
	<edge id=":155_1" function="internal">
		<lane id=":155_1_0" index="0" disallow="tram rail_urban rail rail_electric rail_fast ship" speed="15.28" length="0.30" shape="580.31,1195.37 580.60,1195.33" />
	</edge>
	<edge id=":156_0" function="internal">
		<lane id=":156_0_0" index="0" disallow="tram rail_urban rail rail_electric rail_fast ship" speed="13.89" length="11.20" shape="796.02,1691.43 797.67,1702.51" />
	</edge>
	<edge id=":156_1" function="internal">
		<lane id=":156_1_0" index="0" disallow="tram rail_urban rail rail_electric rail_fast ship" speed="6.51" length="4.11" shape="791.31,1697.80 793.78,1697.78 795.29,1698.41" />
	</edge>
	<edge id=":156_2" function="internal">
		<lane id=":156_2_0" index="0" disallow="tram rail_urban rail rail_electric rail_fast ship" speed="6.51" length="4.92" shape="795.29,1698.41 795.67,1698.56 796.97,1700.14 797.67,1702.51" />
	</edge>
	<edge id=":157_0" function="internal">
		<lane id=":157_0_0" index="0" disallow="tram rail_urban rail rail_electric rail_fast ship" speed="13.89" length="0.10" shape="393.73,1325.58 393.73,1325.58" />
	</edge>
	<edge id=":158_0" function="internal">
		<lane id=":158_0_0" index="0" disallow="tram rail_urban rail rail_electric rail_fast ship" speed="13.89" length="0.10" shape="200.15,1454.86 200.15,1454.86" />
	</edge>
	<edge id=":160_0" function="internal">
		<lane id=":160_0_0" index="0" disallow="tram rail_urban rail rail_electric rail_fast ship" speed="8.07" length="3.96" shape="849.34,1160.55 845.49,1160.51 845.39,1160.47" />
	</edge>
	<edge id=":160_1" function="internal">
		<lane id=":160_1_0" index="0" disallow="tram rail_urban rail rail_electric rail_fast ship" speed="3.65" length="1.44" shape="849.34,1160.55 848.04,1159.91" />
	</edge>
	<edge id=":160_6" function="internal">
		<lane id=":160_6_0" index="0" disallow="tram rail_urban rail rail_electric rail_fast ship" speed="8.07" length="10.22" shape="845.39,1160.47 842.54,1159.25 840.49,1156.76 839.34,1153.04" />
	</edge>
	<edge id=":160_7" function="internal">
		<lane id=":160_7_0" index="0" disallow="tram rail_urban rail rail_electric rail_fast ship" speed="3.65" length="3.23" shape="848.04,1159.91 847.54,1159.17 847.83,1158.33 848.91,1157.38" />
	</edge>
	<edge id=":160_2" function="internal">