<?xml version='1.0' encoding='utf-8'?>
<routes>
	<vType accel="3.0" decel="6.0" id="CarDefault" length="5.0" minGap="2.5" maxSpeed="50.0" sigma="0.5" />
	<route id="sr654" edges="604 605 579 580 306 543 544 350 602 76 75 72 71 74 73 59 68 192 191 190 189 188 69 70 272 347 287 632 365 366 603 353 354 239 447 448 23 58 38" fromJunction="226" toJunction="68" />
	<route id="sr655" edges="52 183 199 198 197 36 243 311 312 24 111 10 110 103 102 276 196 195 252 58 38" fromJunction="243" toJunction="68" />
	<route id="sr656" edges="611 612 425 358 359 360 410 411 441 442 443 444 438 439 440 329 559 560 561 541 542 578 391 85 84 250 249 396" fromJunction="227" toJunction="295" />
	<vehicle id="v95" depart="0.0" route="sr654" type="CarDefault" departLane="random" />
	<vehicle id="v1029" depart="0.0" route="sr655" type="CarDefault" departLane="random" />
	<vehicle id="v2108" depart="0.0" route="sr656" type="CarDefault" departLane="random" />
	<vehicle id="v96" depart="3.86" route="sr654" type="CarDefault" departLane="random" />
	<vehicle id="v1030" depart="6.7" route="sr655" type="CarDefault" departLane="random" />
	<vehicle id="v2109" depart="6.7" route="sr656" type="CarDefault" departLane="random" />
	<vehicle id="v97" depart="7.72" route="sr654" type="CarDefault" departLane="random" />
	<vehicle id="v98" depart="11.58" route="sr654" type="CarDefault" departLane="random" />
	<vehicle id="v1031" depart="13.41" route="sr655" type="CarDefault" departLane="random" />
	<vehicle id="v2110" depart="13.41" route="sr656" type="CarDefault" departLane="random" />
	<vehicle id="v99" depart="15.43" route="sr654" type="CarDefault" departLane="random" />
	<vehicle id="v100" depart="19.29" route="sr654" type="CarDefault" departLane="random" />
	<vehicle id="v1032" depart="20.11" route="sr655" type="CarDefault" departLane="random" />
	<vehicle id="v2111" depart="20.11" route="sr656" type="CarDefault" departLane="random" />
	<vehicle id="v101" depart="23.15" route="sr654" type="CarDefault" departLane="random" />
	<vehicle id="v1033" depart="26.82" route="sr655" type="CarDefault" departLane="random" />
	<vehicle id="v2112" depart="26.82" route="sr656" type="CarDefault" departLane="random" />
	<vehicle id="v102" depart="27.01" route="sr654" type="CarDefault" departLane="random" />
	<vehicle id="v103" depart="30.87" route="sr654" type="CarDefault" departLane="random" />
	<vehicle id="v1034" depart="33.52" route="sr655" type="CarDefault" departLane="random" />
	<vehicle id="v2113" depart="33.52" route="sr656" type="CarDefault" departLane="random" />
	<vehicle id="v104" depart="34.73" route="sr654" type="CarDefault" departLane="random" />
	<vehicle id="v105" depart="38.59" route="sr654" type="CarDefault" departLane="random" />
	<vehicle id="v1035" depart="40.22" route="sr655" type="CarDefault" departLane="random" />
	<vehicle id="v2114" depart="40.22" route="sr656" type="CarDefault" departLane="random" />
	<vehicle id="v106" depart="42.44" route="sr654" type="CarDefault" departLane="random" />
	<vehicle id="v107" depart="46.3" route="sr654" type="CarDefault" departLane="random" />
	<vehicle id="v1036" depart="46.93" route="sr655" type="CarDefault" departLane="random" />
	<vehicle id="v2115" depart="46.93" route="sr656" type="CarDefault" departLane="random" />
	<vehicle id="v108" depart="50.16" route="sr654" type="CarDefault" departLane="random" />
	<vehicle id="v1037" depart="53.63" route="sr655" type="CarDefault" departLane="random" />
	<vehicle id="v2116" depart="53.63" route="sr656" type="CarDefault" departLane="random" />
	<vehicle id="v109" depart="54.02" route="sr654" type="CarDefault" departLane="random" />
	<vehicle id="v0" depart="56" route="sr654" type="CarDefault" departLane="random" />
	<vehicle id="v110" depart="57.88" route="sr654" type="CarDefault" departLane="random" />
	<vehicle id="v1038" depart="60.34" route="sr655" type="CarDefault" departLane="random" />
	<vehicle id="v2117" depart="60.34" route="sr656" type="CarDefault" departLane="random" />
	<vehicle id="v111" depart="61.74" route="sr654" type="CarDefault" departLane="random" />
	<vehicle id="v112" depart="65.59" route="sr654" type="CarDefault" departLane="random" />
	<vehicle id="v1039" depart="67.04" route="sr655" type="CarDefault" departLane="random" />
	<vehicle id="v2118" depart="67.04" route="sr656" type="CarDefault" departLane="random" />
	<vehicle id="v113" depart="69.45" route="sr654" type="CarDefault" departLane="random" />
	<vehicle id="v114" depart="73.31" route="sr654" type="CarDefault" departLane="random" />
	<vehicle id="v1040" depart="73.74" route="sr655" type="CarDefault" departLane="random" />
	<vehicle id="v2119" depart="73.74" route="sr656" type="CarDefault" departLane="random" />
	<vehicle id="v115" depart="77.17" route="sr654" type="CarDefault" departLane="random" />
	<vehicle id="v1041" depart="80.45" route="sr655" type="CarDefault" departLane="random" />
	<vehicle id="v2120" depart="80.45" route="sr656" type="CarDefault" departLane="random" />
	<vehicle id="v116" depart="81.03" route="sr654" type="CarDefault" departLane="random" />
	<vehicle id="v117" depart="84.89" route="sr654" type="CarDefault" departLane="random" />
	<vehicle id="v1042" depart="87.15" route="sr655" type="CarDefault" departLane="random" />
	<vehicle id="v2121" depart="87.15" route="sr656" type="CarDefault" departLane="random" />
	<vehicle id="v118" depart="88.75" route="sr654" type="CarDefault" departLane="random" />
	<vehicle id="v119" depart="92.6" route="sr654" type="CarDefault" departLane="random" />
	<vehicle id="v1043" depart="93.85" route="sr655" type="CarDefault" departLane="random" />
	<vehicle id="v2122" depart="93.85" route="sr656" type="CarDefault" departLane="random" />
	<vehicle id="v120" depart="96.46" route="sr654" type="CarDefault" departLane="random" />
	<vehicle id="v121" depart="100.32" route="sr654" type="CarDefault" departLane="random" />
	<vehicle id="v1044" depart="100.56" route="sr655" type="CarDefault" departLane="random" />
	<vehicle id="v2123" depart="100.56" route="sr656" type="CarDefault" departLane="random" />
	<vehicle id="v122" depart="104.18" route="sr654" type="CarDefault" departLane="random" />
	<vehicle id="v1045" depart="107.26" route="sr655" type="CarDefault" departLane="random" />
	<vehicle id="v2124" depart="107.26" route="sr656" type="CarDefault" departLane="random" />
	<vehicle id="v123" depart="108.04" route="sr654" type="CarDefault" departLane="random" />
	<vehicle id="v124" depart="111.9" route="sr654" type="CarDefault" departLane="random" />
	<vehicle id="v1046" depart="113.97" route="sr655" type="CarDefault" departLane="random" />
	<vehicle id="v2125" depart="113.97" route="sr656" type="CarDefault" departLane="random" />
	<vehicle id="v125" depart="115.76" route="sr654" type="CarDefault" departLane="random" />
	<vehicle id="v126" depart="119.61" route="sr654" type="CarDefault" departLane="random" />
	<vehicle id="v1047" depart="120.67" route="sr655" type="CarDefault" departLane="random" />
	<vehicle id="v2126" depart="120.67" route="sr656" type="CarDefault" departLane="random" />
	<vehicle id="v127" depart="123.47" route="sr654" type="CarDefault" departLane="random" />
	<vehicle id="v128" depart="127.33" route="sr654" type="CarDefault" departLane="random" />
	<vehicle id="v1048" depart="127.37" route="sr655" type="CarDefault" departLane="random" />
	<vehicle id="v2127" depart="127.37" route="sr656" type="CarDefault" departLane="random" />
	<vehicle id="v1" depart="130" route="sr654" type="CarDefault" departLane="random" />
	<vehicle id="v129" depart="131.19" route="sr654" type="CarDefault" departLane="random" />
	<vehicle id="v1049" depart="134.08" route="sr655" type="CarDefault" departLane="random" />
	<vehicle id="v2128" depart="134.08" route="sr656" type="CarDefault" departLane="random" />
	<vehicle id="v130" depart="135.05" route="sr654" type="CarDefault" departLane="random" />
	<vehicle id="v131" depart="138.91" route="sr654" type="CarDefault" departLane="random" />
	<vehicle id="v1050" depart="140.78" route="sr655" type="CarDefault" departLane="random" />
	<vehicle id="v2129" depart="140.78" route="sr656" type="CarDefault" departLane="random" />
	<vehicle id="v132" depart="142.77" route="sr654" type="CarDefault" departLane="random" />
	<vehicle id="v133" depart="146.62" route="sr654" type="CarDefault" departLane="random" />
	<vehicle id="v1051" depart="147.49" route="sr655" type="CarDefault" departLane="random" />
	<vehicle id="v2130" depart="147.49" route="sr656" type="CarDefault" departLane="random" />
	<vehicle id="v134" depart="150.48" route="sr654" type="CarDefault" departLane="random" />
	<vehicle id="v1052" depart="154.19" route="sr655" type="CarDefault" departLane="random" />
	<vehicle id="v2131" depart="154.19" route="sr656" type="CarDefault" departLane="random" />
	<vehicle id="v135" depart="154.34" route="sr654" type="CarDefault" departLane="random" />
	<vehicle id="v136" depart="158.2" route="sr654" type="CarDefault" departLane="random" />
	<vehicle id="v1053" depart="160.89" route="sr655" type="CarDefault" departLane="random" />
	<vehicle id="v2132" depart="160.89" route="sr656" type="CarDefault" departLane="random" />
	<vehicle id="v137" depart="162.06" route="sr654" type="CarDefault" departLane="random" />
	<vehicle id="v2" depart="165" route="sr654" type="CarDefault" departLane="random" />
	<vehicle id="v138" depart="165.92" route="sr654" type="CarDefault" departLane="random" />
	<vehicle id="v1054" depart="167.6" route="sr655" type="CarDefault" departLane="random" />
	<vehicle id="v2133" depart="167.6" route="sr656" type="CarDefault" departLane="random" />
	<vehicle id="v139" depart="169.77" route="sr654" type="CarDefault" departLane="random" />
	<vehicle id="v140" depart="173.63" route="sr654" type="CarDefault" departLane="random" />
	<vehicle id="v1055" depart="174.3" route="sr655" type="CarDefault" departLane="random" />
	<vehicle id="v2134" depart="174.3" route="sr656" type="CarDefault" departLane="random" />
	<vehicle id="v141" depart="177.49" route="sr654" type="CarDefault" departLane="random" />
	<vehicle id="v1056" depart="181.01" route="sr655" type="CarDefault" departLane="random" />
	<vehicle id="v2135" depart="181.01" route="sr656" type="CarDefault" departLane="random" />
	<vehicle id="v142" depart="181.35" route="sr654" type="CarDefault" departLane="random" />
	<vehicle id="v143" depart="185.21" route="sr654" type="CarDefault" departLane="random" />
	<vehicle id="v1057" depart="187.71" route="sr655" type="CarDefault" departLane="random" />
	<vehicle id="v2136" depart="187.71" route="sr656" type="CarDefault" departLane="random" />
	<vehicle id="v144" depart="189.07" route="sr654" type="CarDefault" departLane="random" />
	<vehicle id="v3" depart="192" route="sr654" type="CarDefault" departLane="random" />
	<vehicle id="v145" depart="192.93" route="sr654" type="CarDefault" departLane="random" />
	<vehicle id="v1058" depart="194.41" route="sr655" type="CarDefault" departLane="random" />
	<vehicle id="v2137" depart="194.41" route="sr656" type="CarDefault" departLane="random" />
	<vehicle id="v146" depart="196.78" route="sr654" type="CarDefault" departLane="random" />
	<vehicle id="v147" depart="200.64" route="sr654" type="CarDefault" departLane="random" />
	<vehicle id="v1059" depart="201.12" route="sr655" type="CarDefault" departLane="random" />
	<vehicle id="v2138" depart="201.12" route="sr656" type="CarDefault" departLane="random" />
	<vehicle id="v148" depart="204.5" route="sr654" type="CarDefault" departLane="random" />
	<vehicle id="v1060" depart="207.82" route="sr655" type="CarDefault" departLane="random" />
	<vehicle id="v2139" depart="207.82" route="sr656" type="CarDefault" departLane="random" />
	<vehicle id="v149" depart="208.36" route="sr654" type="CarDefault" departLane="random" />
	<vehicle id="v150" depart="212.22" route="sr654" type="CarDefault" departLane="random" />
	<vehicle id="v1061" depart="214.53" route="sr655" type="CarDefault" departLane="random" />
	<vehicle id="v2140" depart="214.53" route="sr656" type="CarDefault" departLane="random" />
	<vehicle id="v151" depart="216.08" route="sr654" type="CarDefault" departLane="random" />
	<vehicle id="v152" depart="219.94" route="sr654" type="CarDefault" departLane="random" />
	<vehicle id="v1062" depart="221.23" route="sr655" type="CarDefault" departLane="random" />
	<vehicle id="v2141" depart="221.23" route="sr656" type="CarDefault" departLane="random" />
	<vehicle id="v153" depart="223.79" route="sr654" type="CarDefault" departLane="random" />
	<vehicle id="v154" depart="227.65" route="sr654" type="CarDefault" departLane="random" />
	<vehicle id="v1063" depart="227.93" route="sr655" type="CarDefault" departLane="random" />
	<vehicle id="v2142" depart="227.93" route="sr656" type="CarDefault" departLane="random" />
	<vehicle id="v4" depart="231" route="sr654" type="CarDefault" departLane="random" />
	<vehicle id="v155" depart="231.51" route="sr654" type="CarDefault" departLane="random" />
	<vehicle id="v1064" depart="234.64" route="sr655" type="CarDefault" departLane="random" />
	<vehicle id="v2143" depart="234.64" route="sr656" type="CarDefault" departLane="random" />
	<vehicle id="v156" depart="235.37" route="sr654" type="CarDefault" departLane="random" />
	<vehicle id="v157" depart="239.23" route="sr654" type="CarDefault" departLane="random" />
	<vehicle id="v1065" depart="241.34" route="sr655" type="CarDefault" departLane="random" />
	<vehicle id="v2144" depart="241.34" route="sr656" type="CarDefault" departLane="random" />
	<vehicle id="v158" depart="243.09" route="sr654" type="CarDefault" departLane="random" />
	<vehicle id="v159" depart="246.95" route="sr654" type="CarDefault" departLane="random" />
	<vehicle id="v1066" depart="248.04" route="sr655" type="CarDefault" departLane="random" />
	<vehicle id="v2145" depart="248.04" route="sr656" type="CarDefault" departLane="random" />
	<vehicle id="v160" depart="250.8" route="sr654" type="CarDefault" departLane="random" />
	<vehicle id="v161" depart="254.66" route="sr654" type="CarDefault" departLane="random" />
	<vehicle id="v1067" depart="254.75" route="sr655" type="CarDefault" departLane="random" />
	<vehicle id="v2146" depart="254.75" route="sr656" type="CarDefault" departLane="random" />
	<vehicle id="v162" depart="258.52" route="sr654" type="CarDefault" departLane="random" />
	<vehicle id="v1068" depart="261.45" route="sr655" type="CarDefault" departLane="random" />
	<vehicle id="v2147" depart="261.45" route="sr656" type="CarDefault" departLane="random" />
	<vehicle id="v163" depart="262.38" route="sr654" type="CarDefault" departLane="random" />
	<vehicle id="v164" depart="266.24" route="sr654" type="CarDefault" departLane="random" />
	<vehicle id="v1069" depart="268.16" route="sr655" type="CarDefault" departLane="random" />
	<vehicle id="v2148" depart="268.16" route="sr656" type="CarDefault" departLane="random" />
	<vehicle id="v165" depart="270.1" route="sr654" type="CarDefault" departLane="random" />
	<vehicle id="v166" depart="273.95" route="sr654" type="CarDefault" departLane="random" />
	<vehicle id="v1070" depart="274.86" route="sr655" type="CarDefault" departLane="random" />
	<vehicle id="v2149" depart="274.86" route="sr656" type="CarDefault" departLane="random" />
	<vehicle id="v167" depart="277.81" route="sr654" type="CarDefault" departLane="random" />
	<vehicle id="v1071" depart="281.56" route="sr655" type="CarDefault" departLane="random" />
	<vehicle id="v2150" depart="281.56" route="sr656" type="CarDefault" departLane="random" />
	<vehicle id="v168" depart="281.67" route="sr654" type="CarDefault" departLane="random" />
	<vehicle id="v169" depart="285.53" route="sr654" type="CarDefault" departLane="random" />
	<vehicle id="v1072" depart="288.27" route="sr655" type="CarDefault" departLane="random" />
	<vehicle id="v2151" depart="288.27" route="sr656" type="CarDefault" departLane="random" />
	<vehicle id="v170" depart="289.39" route="sr654" type="CarDefault" departLane="random" />
	<vehicle id="v171" depart="293.25" route="sr654" type="CarDefault" departLane="random" />
	<vehicle id="v1073" depart="294.97" route="sr655" type="CarDefault" departLane="random" />
	<vehicle id="v2152" depart="294.97" route="sr656" type="CarDefault" departLane="random" />
	<vehicle id="v172" depart="297.11" route="sr654" type="CarDefault" departLane="random" />
	<vehicle id="v173" depart="300.96" route="sr654" type="CarDefault" departLane="random" />
	<vehicle id="v1074" depart="301.68" route="sr655" type="CarDefault" departLane="random" />
	<vehicle id="v2153" depart="301.68" route="sr656" type="CarDefault" departLane="random" />
	<vehicle id="v174" depart="304.82" route="sr654" type="CarDefault" departLane="random" />
	<vehicle id="v1075" depart="308.38" route="sr655" type="CarDefault" departLane="random" />
	<vehicle id="v2154" depart="308.38" route="sr656" type="CarDefault" departLane="random" />
	<vehicle id="v175" depart="308.68" route="sr654" type="CarDefault" departLane="random" />
	<vehicle id="v5" depart="309" route="sr654" type="CarDefault" departLane="random" />
	<vehicle id="v176" depart="312.54" route="sr654" type="CarDefault" departLane="random" />
	<vehicle id="v1076" depart="315.08" route="sr655" type="CarDefault" departLane="random" />
	<vehicle id="v2155" depart="315.08" route="sr656" type="CarDefault" departLane="random" />
	<vehicle id="v177" depart="316.4" route="sr654" type="CarDefault" departLane="random" />
	<vehicle id="v178" depart="320.26" route="sr654" type="CarDefault" departLane="random" />
	<vehicle id="v1077" depart="321.79" route="sr655" type="CarDefault" departLane="random" />
	<vehicle id="v2156" depart="321.79" route="sr656" type="CarDefault" departLane="random" />
	<vehicle id="v179" depart="324.12" route="sr654" type="CarDefault" departLane="random" />
	<vehicle id="v180" depart="327.97" route="sr654" type="CarDefault" departLane="random" />
	<vehicle id="v1078" depart="328.49" route="sr655" type="CarDefault" departLane="random" />
	<vehicle id="v2157" depart="328.49" route="sr656" type="CarDefault" departLane="random" />
	<vehicle id="v6" depart="330" route="sr654" type="CarDefault" departLane="random" />
	<vehicle id="v181" depart="331.83" route="sr654" type="CarDefault" departLane="random" />
	<vehicle id="v1079" depart="335.2" route="sr655" type="CarDefault" departLane="random" />
	<vehicle id="v2158" depart="335.2" route="sr656" type="CarDefault" departLane="random" />
	<vehicle id="v182" depart="335.69" route="sr654" type="CarDefault" departLane="random" />
	<vehicle id="v183" depart="339.55" route="sr654" type="CarDefault" departLane="random" />
	<vehicle id="v1080" depart="341.9" route="sr655" type="CarDefault" departLane="random" />
	<vehicle id="v2159" depart="341.9" route="sr656" type="CarDefault" departLane="random" />
	<vehicle id="v184" depart="343.41" route="sr654" type="CarDefault" departLane="random" />
	<vehicle id="v185" depart="347.27" route="sr654" type="CarDefault" departLane="random" />
	<vehicle id="v1081" depart="348.6" route="sr655" type="CarDefault" departLane="random" />
	<vehicle id="v2160" depart="348.6" route="sr656" type="CarDefault" departLane="random" />
	<vehicle id="v186" depart="351.13" route="sr654" type="CarDefault" departLane="random" />
	<vehicle id="v187" depart="354.98" route="sr654" type="CarDefault" departLane="random" />
	<vehicle id="v1082" depart="355.31" route="sr655" type="CarDefault" departLane="random" />
	<vehicle id="v2161" depart="355.31" route="sr656" type="CarDefault" departLane="random" />
	<vehicle id="v188" depart="358.84" route="sr654" type="CarDefault" departLane="random" />
	<vehicle id="v7" depart="362" route="sr654" type="CarDefault" departLane="random" />
	<vehicle id="v1083" depart="362.01" route="sr655" type="CarDefault" departLane="random" />
	<vehicle id="v2162" depart="362.01" route="sr656" type="CarDefault" departLane="random" />
	<vehicle id="v189" depart="362.7" route="sr654" type="CarDefault" departLane="random" />
	<vehicle id="v190" depart="366.56" route="sr654" type="CarDefault" departLane="random" />
	<vehicle id="v1084" depart="368.72" route="sr655" type="CarDefault" departLane="random" />
	<vehicle id="v2163" depart="368.72" route="sr656" type="CarDefault" departLane="random" />
	<vehicle id="v191" depart="370.42" route="sr654" type="CarDefault" departLane="random" />
	<vehicle id="v192" depart="374.28" route="sr654" type="CarDefault" departLane="random" />
	<vehicle id="v1085" depart="375.42" route="sr655" type="CarDefault" departLane="random" />
	<vehicle id="v2164" depart="375.42" route="sr656" type="CarDefault" departLane="random" />
	<vehicle id="v193" depart="378.14" route="sr654" type="CarDefault" departLane="random" />
	<vehicle id="v194" depart="381.99" route="sr654" type="CarDefault" departLane="random" />
	<vehicle id="v1086" depart="382.12" route="sr655" type="CarDefault" departLane="random" />
	<vehicle id="v2165" depart="382.12" route="sr656" type="CarDefault" departLane="random" />
	<vehicle id="v195" depart="385.85" route="sr654" type="CarDefault" departLane="random" />
	<vehicle id="v1087" depart="388.83" route="sr655" type="CarDefault" departLane="random" />
	<vehicle id="v2166" depart="388.83" route="sr656" type="CarDefault" departLane="random" />
	<vehicle id="v196" depart="389.71" route="sr654" type="CarDefault" departLane="random" />
	<vehicle id="v197" depart="393.57" route="sr654" type="CarDefault" departLane="random" />
	<vehicle id="v1088" depart="395.53" route="sr655" type="CarDefault" departLane="random" />
	<vehicle id="v2167" depart="395.53" route="sr656" type="CarDefault" departLane="random" />
	<vehicle id="v198" depart="397.43" route="sr654" type="CarDefault" departLane="random" />
	<vehicle id="v199" depart="401.29" route="sr654" type="CarDefault" departLane="random" />
	<vehicle id="v1089" depart="402.23" route="sr655" type="CarDefault" departLane="random" />
	<vehicle id="v2168" depart="402.23" route="sr656" type="CarDefault" departLane="random" />
	<vehicle id="v200" depart="405.14" route="sr654" type="CarDefault" departLane="random" />
	<vehicle id="v8" depart="406" route="sr654" type="CarDefault" departLane="random" />
	<vehicle id="v1090" depart="408.94" route="sr655" type="CarDefault" departLane="random" />
	<vehicle id="v2169" depart="408.94" route="sr656" type="CarDefault" departLane="random" />
	<vehicle id="v201" depart="409.0" route="sr654" type="CarDefault" departLane="random" />
	<vehicle id="v202" depart="412.86" route="sr654" type="CarDefault" departLane="random" />
	<vehicle id="v1091" depart="415.64" route="sr655" type="CarDefault" departLane="random" />
	<vehicle id="v2170" depart="415.64" route="sr656" type="CarDefault" departLane="random" />
	<vehicle id="v203" depart="416.72" route="sr654" type="CarDefault" departLane="random" />
	<vehicle id="v204" depart="420.58" route="sr654" type="CarDefault" departLane="random" />
	<vehicle id="v1092" depart="422.35" route="sr655" type="CarDefault" departLane="random" />
	<vehicle id="v2171" depart="422.35" route="sr656" type="CarDefault" departLane="random" />
	<vehicle id="v205" depart="424.44" route="sr654" type="CarDefault" departLane="random" />
	<vehicle id="v9" depart="427" route="sr654" type="CarDefault" departLane="random" />
	<vehicle id="v206" depart="428.3" route="sr654" type="CarDefault" departLane="random" />
	<vehicle id="v1093" depart="429.05" route="sr655" type="CarDefault" departLane="random" />
	<vehicle id="v2172" depart="429.05" route="sr656" type="CarDefault" departLane="random" />
	<vehicle id="v207" depart="432.15" route="sr654" type="CarDefault" departLane="random" />
	<vehicle id="v1094" depart="435.75" route="sr655" type="CarDefault" departLane="random" />
	<vehicle id="v2173" depart="435.75" route="sr656" type="CarDefault" departLane="random" />
	<vehicle id="v208" depart="436.01" route="sr654" type="CarDefault" departLane="random" />
	<vehicle id="v209" depart="439.87" route="sr654" type="CarDefault" departLane="random" />
	<vehicle id="v1095" depart="442.46" route="sr655" type="CarDefault" departLane="random" />
	<vehicle id="v2174" depart="442.46" route="sr656" type="CarDefault" departLane="random" />
	<vehicle id="v210" depart="443.73" route="sr654" type="CarDefault" departLane="random" />
	<vehicle id="v211" depart="447.59" route="sr654" type="CarDefault" departLane="random" />
	<vehicle id="v1096" depart="449.16" route="sr655" type="CarDefault" departLane="random" />
	<vehicle id="v2175" depart="449.16" route="sr656" type="CarDefault" departLane="random" />
	<vehicle id="v212" depart="451.45" route="sr654" type="CarDefault" departLane="random" />
	<vehicle id="v213" depart="455.31" route="sr654" type="CarDefault" departLane="random" />
	<vehicle id="v1097" depart="455.87" route="sr655" type="CarDefault" departLane="random" />
	<vehicle id="v2176" depart="455.87" route="sr656" type="CarDefault" departLane="random" />
	<vehicle id="v10" depart="458" route="sr654" type="CarDefault" departLane="random" />
	<vehicle id="v214" depart="459.16" route="sr654" type="CarDefault" departLane="random" />
	<vehicle id="v1098" depart="462.57" route="sr655" type="CarDefault" departLane="random" />
	<vehicle id="v2177" depart="462.57" route="sr656" type="CarDefault" departLane="random" />
	<vehicle id="v215" depart="463.02" route="sr654" type="CarDefault" departLane="random" />
	<vehicle id="v216" depart="466.88" route="sr654" type="CarDefault" departLane="random" />
	<vehicle id="v1099" depart="469.27" route="sr655" type="CarDefault" departLane="random" />
	<vehicle id="v2178" depart="469.27" route="sr656" type="CarDefault" departLane="random" />
	<vehicle id="v217" depart="470.74" route="sr654" type="CarDefault" departLane="random" />
	<vehicle id="v11" depart="474" route="sr654" type="CarDefault" departLane="random" />
	<vehicle id="v218" depart="474.6" route="sr654" type="CarDefault" departLane="random" />
	<vehicle id="v1100" depart="475.98" route="sr655" type="CarDefault" departLane="random" />
	<vehicle id="v2179" depart="475.98" route="sr656" type="CarDefault" departLane="random" />
	<vehicle id="v219" depart="478.46" route="sr654" type="CarDefault" departLane="random" />
	<vehicle id="v220" depart="482.32" route="sr654" type="CarDefault" departLane="random" />
	<vehicle id="v1101" depart="482.68" route="sr655" type="CarDefault" departLane="random" />
	<vehicle id="v2180" depart="482.68" route="sr656" type="CarDefault" departLane="random" />
	<vehicle id="v221" depart="486.17" route="sr654" type="CarDefault" departLane="random" />
	<vehicle id="v1102" depart="489.39" route="sr655" type="CarDefault" departLane="random" />
	<vehicle id="v2181" depart="489.39" route="sr656" type="CarDefault" departLane="random" />
	<vehicle id="v222" depart="490.03" route="sr654" type="CarDefault" departLane="random" />
	<vehicle id="v223" depart="493.89" route="sr654" type="CarDefault" departLane="random" />
	<vehicle id="v1103" depart="496.09" route="sr655" type="CarDefault" departLane="random" />
	<vehicle id="v2182" depart="496.09" route="sr656" type="CarDefault" departLane="random" />
	<vehicle id="v224" depart="497.75" route="sr654" type="CarDefault" departLane="random" />
	<vehicle id="v12" depart="501" route="sr654" type="CarDefault" departLane="random" />
	<vehicle id="v225" depart="501.61" route="sr654" type="CarDefault" departLane="random" />
	<vehicle id="v1104" depart="502.79" route="sr655" type="CarDefault" departLane="random" />
	<vehicle id="v2183" depart="502.79" route="sr656" type="CarDefault" departLane="random" />
	<vehicle id="v226" depart="505.47" route="sr654" type="CarDefault" departLane="random" />
	<vehicle id="v227" depart="509.32" route="sr654" type="CarDefault" departLane="random" />
	<vehicle id="v1105" depart="509.5" route="sr655" type="CarDefault" departLane="random" />
	<vehicle id="v2184" depart="509.5" route="sr656" type="CarDefault" departLane="random" />
	<vehicle id="v228" depart="513.18" route="sr654" type="CarDefault" departLane="random" />
	<vehicle id="v1106" depart="516.2" route="sr655" type="CarDefault" departLane="random" />
	<vehicle id="v2185" depart="516.2" route="sr656" type="CarDefault" departLane="random" />
	<vehicle id="v229" depart="517.04" route="sr654" type="CarDefault" departLane="random" />
	<vehicle id="v230" depart="520.9" route="sr654" type="CarDefault" departLane="random" />
	<vehicle id="v1107" depart="522.91" route="sr655" type="CarDefault" departLane="random" />
	<vehicle id="v2186" depart="522.91" route="sr656" type="CarDefault" departLane="random" />
	<vehicle id="v231" depart="524.76" route="sr654" type="CarDefault" departLane="random" />
	<vehicle id="v232" depart="528.62" route="sr654" type="CarDefault" departLane="random" />
	<vehicle id="v1108" depart="529.61" route="sr655" type="CarDefault" departLane="random" />
	<vehicle id="v2187" depart="529.61" route="sr656" type="CarDefault" departLane="random" />
	<vehicle id="v233" depart="532.48" route="sr654" type="CarDefault" departLane="random" />
	<vehicle id="v13" depart="536" route="sr654" type="CarDefault" departLane="random" />
	<vehicle id="v1109" depart="536.31" route="sr655" type="CarDefault" departLane="random" />
	<vehicle id="v2188" depart="536.31" route="sr656" type="CarDefault" departLane="random" />
	<vehicle id="v234" depart="536.33" route="sr654" type="CarDefault" departLane="random" />
	<vehicle id="v235" depart="540.19" route="sr654" type="CarDefault" departLane="random" />
	<vehicle id="v1110" depart="543.02" route="sr655" type="CarDefault" departLane="random" />
	<vehicle id="v2189" depart="543.02" route="sr656" type="CarDefault" departLane="random" />
	<vehicle id="v236" depart="544.05" route="sr654" type="CarDefault" departLane="random" />
	<vehicle id="v237" depart="547.91" route="sr654" type="CarDefault" departLane="random" />
	<vehicle id="v1111" depart="549.72" route="sr655" type="CarDefault" departLane="random" />