<?xml version='1.0' encoding='utf-8'?>
<routes>
	<vType accel="3.0" decel="6.0" id="CarDefault" length="5.0" minGap="2.5" maxSpeed="50.0" sigma="0.5" />
	<route id="sr10890" edges="226 227 228 116 359 300 301 124 30 29 397 398 399 400 401 237 0" fromJunction="127" toJunction="117" />
	<route id="r17966" edges="226 227 228 454 206 185 186 103 386 93 14 42 41 40 237 0" fromJunction="127" toJunction="117" />
	<route id="sr10891" edges="62 129 61 6 5 161 162 361 163 164 38 134 116 115 114 113 112 74 73 72 71 70 69 68" fromJunction="154" toJunction="42" />
	<route id="r17967" edges="135 56 230 302 303 304 238 387 414 251 364 365 366 367 368 348 141 431 255" fromJunction="117" toJunction="154" />
	<route id="r17968" edges="226 227 228 454 206 185 186 103 386 93 156 278 41 40 237 0" fromJunction="127" toJunction="117" />
	<route id="sr10889" edges="135 56 111 110 335 336 337 338 63 339 95 251 364 365 366 367 368 348 141 431 255" fromJunction="117" toJunction="154" />
	<vehicle id="v5669" depart="0.0" route="sr10889" type="CarDefault" departLane="random" />
	<vehicle id="v6635" depart="0.0" route="sr10890" type="CarDefault" departLane="random" />
	<vehicle id="v7613" depart="0.0" route="sr10891" type="CarDefault" departLane="random" />
	<vehicle id="v5670" depart="3.73" route="sr10889" type="CarDefault" departLane="random" />
	<vehicle id="v6636" depart="7.41" route="sr10890" type="CarDefault" departLane="random" />
	<vehicle id="v5671" depart="7.46" route="sr10889" type="CarDefault" departLane="random" />
	<vehicle id="v7614" depart="8.11" route="sr10891" type="CarDefault" departLane="random" />
	<vehicle id="v5672" depart="11.19" route="sr10889" type="CarDefault" departLane="random" />
	<vehicle id="v6637" depart="14.81" route="sr10890" type="CarDefault" departLane="random" />
	<vehicle id="v5673" depart="14.92" route="sr10889" type="CarDefault" departLane="random" />
	<vehicle id="v7615" depart="16.22" route="sr10891" type="CarDefault" departLane="random" />
	<vehicle id="v5588" depart="17" route="sr10889" type="CarDefault" departLane="random" />
	<vehicle id="v5674" depart="18.65" route="sr10889" type="CarDefault" departLane="random" />
	<vehicle id="v6638" depart="22.22" route="sr10890" type="CarDefault" departLane="random" />
	<vehicle id="v5675" depart="22.38" route="sr10889" type="CarDefault" departLane="random" />
	<vehicle id="v7616" depart="24.32" route="sr10891" type="CarDefault" departLane="random" />
	<vehicle id="v5676" depart="26.11" route="sr10889" type="CarDefault" departLane="random" />
	<vehicle id="v6639" depart="29.63" route="sr10890" type="CarDefault" departLane="random" />
	<vehicle id="v5677" depart="29.84" route="sr10889" type="CarDefault" departLane="random" />
	<vehicle id="v7617" depart="32.43" route="sr10891" type="CarDefault" departLane="random" />
	<vehicle id="v5678" depart="33.58" route="r17967" type="CarDefault" departLane="random" />
	<vehicle id="v6640" depart="37.04" route="r17966" type="CarDefault" departLane="random" />
	<vehicle id="v5679" depart="37.31" route="r17967" type="CarDefault" departLane="random" />
	<vehicle id="v7618" depart="40.54" route="sr10891" type="CarDefault" departLane="random" />
	<vehicle id="v5680" depart="41.04" route="r17967" type="CarDefault" departLane="random" />
	<vehicle id="v6641" depart="44.44" route="r17966" type="CarDefault" departLane="random" />
	<vehicle id="v5681" depart="44.77" route="r17967" type="CarDefault" departLane="random" />
	<vehicle id="v5682" depart="48.5" route="r17967" type="CarDefault" departLane="random" />
	<vehicle id="v7619" depart="48.65" route="sr10891" type="CarDefault" departLane="random" />
	<vehicle id="v5589" depart="50" route="r17967" type="CarDefault" departLane="random" />
	<vehicle id="v6642" depart="51.85" route="r17966" type="CarDefault" departLane="random" />
	<vehicle id="v5683" depart="52.23" route="r17967" type="CarDefault" departLane="random" />
	<vehicle id="v5684" depart="55.96" route="r17967" type="CarDefault" departLane="random" />
	<vehicle id="v7620" depart="56.76" route="sr10891" type="CarDefault" departLane="random" />
	<vehicle id="v6643" depart="59.26" route="r17966" type="CarDefault" departLane="random" />
	<vehicle id="v5685" depart="59.69" route="r17967" type="CarDefault" departLane="random" />
	<vehicle id="v5590" depart="63" route="r17967" type="CarDefault" departLane="random" />
	<vehicle id="v5686" depart="63.42" route="r17967" type="CarDefault" departLane="random" />
	<vehicle id="v7621" depart="64.86" route="sr10891" type="CarDefault" departLane="random" />
	<vehicle id="v6644" depart="66.67" route="r17966" type="CarDefault" departLane="random" />
	<vehicle id="v5687" depart="67.15" route="r17967" type="CarDefault" departLane="random" />
	<vehicle id="v5688" depart="70.88" route="r17967" type="CarDefault" departLane="random" />
	<vehicle id="v7622" depart="72.97" route="sr10891" type="CarDefault" departLane="random" />
	<vehicle id="v6645" depart="74.07" route="r17966" type="CarDefault" departLane="random" />
	<vehicle id="v5689" depart="74.61" route="r17967" type="CarDefault" departLane="random" />
	<vehicle id="v5690" depart="78.34" route="r17967" type="CarDefault" departLane="random" />
	<vehicle id="v7623" depart="81.08" route="sr10891" type="CarDefault" departLane="random" />
	<vehicle id="v6646" depart="81.48" route="r17966" type="CarDefault" departLane="random" />
	<vehicle id="v5691" depart="82.07" route="r17967" type="CarDefault" departLane="random" />
	<vehicle id="v5692" depart="85.8" route="r17967" type="CarDefault" departLane="random" />
	<vehicle id="v6647" depart="88.89" route="r17966" type="CarDefault" departLane="random" />
	<vehicle id="v7624" depart="89.19" route="sr10891" type="CarDefault" departLane="random" />
	<vehicle id="v5693" depart="89.53" route="r17967" type="CarDefault" departLane="random" />
	<vehicle id="v5694" depart="93.26" route="r17967" type="CarDefault" departLane="random" />
	<vehicle id="v6648" depart="96.3" route="r17966" type="CarDefault" departLane="random" />
	<vehicle id="v5695" depart="96.99" route="r17967" type="CarDefault" departLane="random" />
	<vehicle id="v7625" depart="97.3" route="sr10891" type="CarDefault" departLane="random" />
	<vehicle id="v5696" depart="100.73" route="r17967" type="CarDefault" departLane="random" />
	<vehicle id="v6649" depart="103.7" route="r17966" type="CarDefault" departLane="random" />
	<vehicle id="v5697" depart="104.46" route="r17967" type="CarDefault" departLane="random" />
	<vehicle id="v7626" depart="105.41" route="sr10891" type="CarDefault" departLane="random" />
	<vehicle id="v5698" depart="108.19" route="r17967" type="CarDefault" departLane="random" />
	<vehicle id="v6650" depart="111.11" route="r17966" type="CarDefault" departLane="random" />
	<vehicle id="v5699" depart="111.92" route="r17967" type="CarDefault" departLane="random" />
	<vehicle id="v7627" depart="113.51" route="sr10891" type="CarDefault" departLane="random" />
	<vehicle id="v5700" depart="115.65" route="r17967" type="CarDefault" departLane="random" />
	<vehicle id="v6651" depart="118.52" route="r17966" type="CarDefault" departLane="random" />
	<vehicle id="v5701" depart="119.38" route="r17967" type="CarDefault" departLane="random" />
	<vehicle id="v7628" depart="121.62" route="sr10891" type="CarDefault" departLane="random" />
	<vehicle id="v5702" depart="123.11" route="r17967" type="CarDefault" departLane="random" />
	<vehicle id="v6652" depart="125.93" route="r17966" type="CarDefault" departLane="random" />
	<vehicle id="v5703" depart="126.84" route="r17967" type="CarDefault" departLane="random" />
	<vehicle id="v7629" depart="129.73" route="sr10891" type="CarDefault" departLane="random" />
	<vehicle id="v5704" depart="130.57" route="r17967" type="CarDefault" departLane="random" />
	<vehicle id="v6653" depart="133.33" route="r17966" type="CarDefault" departLane="random" />
	<vehicle id="v5705" depart="134.3" route="r17967" type="CarDefault" departLane="random" />
	<vehicle id="v7630" depart="137.84" route="sr10891" type="CarDefault" departLane="random" />
	<vehicle id="v5706" depart="138.03" route="r17967" type="CarDefault" departLane="random" />
	<vehicle id="v6654" depart="140.74" route="r17966" type="CarDefault" departLane="random" />
	<vehicle id="v5707" depart="141.76" route="r17967" type="CarDefault" departLane="random" />
	<vehicle id="v5708" depart="145.49" route="r17967" type="CarDefault" departLane="random" />
	<vehicle id="v7631" depart="145.95" route="sr10891" type="CarDefault" departLane="random" />
	<vehicle id="v6655" depart="148.15" route="r17966" type="CarDefault" departLane="random" />
	<vehicle id="v5709" depart="149.22" route="r17967" type="CarDefault" departLane="random" />
	<vehicle id="v5710" depart="152.95" route="r17967" type="CarDefault" departLane="random" />
	<vehicle id="v7632" depart="154.05" route="sr10891" type="CarDefault" departLane="random" />
	<vehicle id="v6656" depart="155.56" route="r17966" type="CarDefault" departLane="random" />
	<vehicle id="v5711" depart="156.68" route="r17967" type="CarDefault" departLane="random" />
	<vehicle id="v5591" depart="159" route="r17967" type="CarDefault" departLane="random" />
	<vehicle id="v5712" depart="160.41" route="r17967" type="CarDefault" departLane="random" />
	<vehicle id="v7633" depart="162.16" route="sr10891" type="CarDefault" departLane="random" />
	<vehicle id="v6657" depart="162.96" route="r17966" type="CarDefault" departLane="random" />
	<vehicle id="v5713" depart="164.15" route="r17967" type="CarDefault" departLane="random" />
	<vehicle id="v5714" depart="167.88" route="r17967" type="CarDefault" departLane="random" />
	<vehicle id="v7634" depart="170.27" route="sr10891" type="CarDefault" departLane="random" />
	<vehicle id="v6658" depart="170.37" route="r17966" type="CarDefault" departLane="random" />
	<vehicle id="v5715" depart="171.61" route="r17967" type="CarDefault" departLane="random" />
	<vehicle id="v5716" depart="175.34" route="r17967" type="CarDefault" departLane="random" />
	<vehicle id="v6659" depart="177.78" route="r17966" type="CarDefault" departLane="random" />
	<vehicle id="v7635" depart="178.38" route="sr10891" type="CarDefault" departLane="random" />
	<vehicle id="v5717" depart="179.07" route="r17967" type="CarDefault" departLane="random" />
	<vehicle id="v5718" depart="182.8" route="r17967" type="CarDefault" departLane="random" />
	<vehicle id="v6660" depart="185.19" route="r17966" type="CarDefault" departLane="random" />
	<vehicle id="v7636" depart="186.49" route="sr10891" type="CarDefault" departLane="random" />
	<vehicle id="v5719" depart="186.53" route="r17967" type="CarDefault" departLane="random" />
	<vehicle id="v5720" depart="190.26" route="r17967" type="CarDefault" departLane="random" />
	<vehicle id="v6661" depart="192.59" route="r17966" type="CarDefault" departLane="random" />
	<vehicle id="v5721" depart="193.99" route="r17967" type="CarDefault" departLane="random" />
	<vehicle id="v7637" depart="194.59" route="sr10891" type="CarDefault" departLane="random" />
	<vehicle id="v5722" depart="197.72" route="r17967" type="CarDefault" departLane="random" />
	<vehicle id="v6662" depart="200.0" route="r17966" type="CarDefault" departLane="random" />
	<vehicle id="v5723" depart="201.45" route="r17967" type="CarDefault" departLane="random" />
	<vehicle id="v7638" depart="202.7" route="sr10891" type="CarDefault" departLane="random" />
	<vehicle id="v5592" depart="205" route="r17967" type="CarDefault" departLane="random" />
	<vehicle id="v5724" depart="205.18" route="r17967" type="CarDefault" departLane="random" />
	<vehicle id="v6663" depart="207.41" route="r17966" type="CarDefault" departLane="random" />
	<vehicle id="v5725" depart="208.91" route="r17967" type="CarDefault" departLane="random" />
	<vehicle id="v7639" depart="210.81" route="sr10891" type="CarDefault" departLane="random" />
	<vehicle id="v5726" depart="212.64" route="r17967" type="CarDefault" departLane="random" />
	<vehicle id="v6664" depart="214.81" route="r17966" type="CarDefault" departLane="random" />
	<vehicle id="v5727" depart="216.37" route="r17967" type="CarDefault" departLane="random" />
	<vehicle id="v7640" depart="218.92" route="sr10891" type="CarDefault" departLane="random" />
	<vehicle id="v5728" depart="220.1" route="r17967" type="CarDefault" departLane="random" />
	<vehicle id="v5593" depart="221" route="r17967" type="CarDefault" departLane="random" />
	<vehicle id="v6665" depart="222.22" route="r17966" type="CarDefault" departLane="random" />
	<vehicle id="v5729" depart="223.83" route="r17967" type="CarDefault" departLane="random" />
	<vehicle id="v7641" depart="227.03" route="sr10891" type="CarDefault" departLane="random" />
	<vehicle id="v5730" depart="227.56" route="r17967" type="CarDefault" departLane="random" />
	<vehicle id="v6666" depart="229.63" route="r17966" type="CarDefault" departLane="random" />
	<vehicle id="v5731" depart="231.3" route="r17967" type="CarDefault" departLane="random" />
	<vehicle id="v5732" depart="235.03" route="r17967" type="CarDefault" departLane="random" />
	<vehicle id="v7642" depart="235.14" route="sr10891" type="CarDefault" departLane="random" />
	<vehicle id="v6667" depart="237.04" route="r17966" type="CarDefault" departLane="random" />
	<vehicle id="v5733" depart="238.76" route="r17967" type="CarDefault" departLane="random" />
	<vehicle id="v5734" depart="242.49" route="r17967" type="CarDefault" departLane="random" />
	<vehicle id="v7643" depart="243.24" route="sr10891" type="CarDefault" departLane="random" />
	<vehicle id="v6668" depart="244.44" route="r17966" type="CarDefault" departLane="random" />
	<vehicle id="v5735" depart="246.22" route="r17967" type="CarDefault" departLane="random" />
	<vehicle id="v5736" depart="249.95" route="r17967" type="CarDefault" departLane="random" />
	<vehicle id="v7644" depart="251.35" route="sr10891" type="CarDefault" departLane="random" />
	<vehicle id="v6669" depart="251.85" route="r17966" type="CarDefault" departLane="random" />
	<vehicle id="v5737" depart="253.68" route="r17967" type="CarDefault" departLane="random" />
	<vehicle id="v5594" depart="256" route="r17967" type="CarDefault" departLane="random" />
	<vehicle id="v5738" depart="257.41" route="r17967" type="CarDefault" departLane="random" />
	<vehicle id="v6670" depart="259.26" route="r17966" type="CarDefault" departLane="random" />
	<vehicle id="v7645" depart="259.46" route="sr10891" type="CarDefault" departLane="random" />
	<vehicle id="v5739" depart="261.14" route="r17967" type="CarDefault" departLane="random" />
	<vehicle id="v5740" depart="264.87" route="r17967" type="CarDefault" departLane="random" />
	<vehicle id="v6671" depart="266.67" route="r17966" type="CarDefault" departLane="random" />
	<vehicle id="v7646" depart="267.57" route="sr10891" type="CarDefault" departLane="random" />
	<vehicle id="v5741" depart="268.6" route="r17967" type="CarDefault" departLane="random" />
	<vehicle id="v5742" depart="272.33" route="r17967" type="CarDefault" departLane="random" />
	<vehicle id="v6672" depart="274.07" route="r17966" type="CarDefault" departLane="random" />
	<vehicle id="v7647" depart="275.68" route="sr10891" type="CarDefault" departLane="random" />
	<vehicle id="v5743" depart="276.06" route="r17967" type="CarDefault" departLane="random" />
	<vehicle id="v5744" depart="279.79" route="r17967" type="CarDefault" departLane="random" />
	<vehicle id="v6673" depart="281.48" route="r17966" type="CarDefault" departLane="random" />
	<vehicle id="v5745" depart="283.52" route="r17967" type="CarDefault" departLane="random" />
	<vehicle id="v7648" depart="283.78" route="sr10891" type="CarDefault" departLane="random" />
	<vehicle id="v5746" depart="287.25" route="r17967" type="CarDefault" departLane="random" />
	<vehicle id="v6674" depart="288.89" route="r17966" type="CarDefault" departLane="random" />
	<vehicle id="v5747" depart="290.98" route="r17967" type="CarDefault" departLane="random" />
	<vehicle id="v7649" depart="291.89" route="sr10891" type="CarDefault" departLane="random" />
	<vehicle id="v5748" depart="294.72" route="r17967" type="CarDefault" departLane="random" />
	<vehicle id="v6675" depart="296.3" route="r17966" type="CarDefault" departLane="random" />
	<vehicle id="v5749" depart="298.45" route="r17967" type="CarDefault" departLane="random" />
	<vehicle id="v7650" depart="300.0" route="sr10891" type="CarDefault" departLane="random" />
	<vehicle id="v5750" depart="302.18" route="r17967" type="CarDefault" departLane="random" />
	<vehicle id="v6676" depart="303.7" route="r17966" type="CarDefault" departLane="random" />
	<vehicle id="v5751" depart="305.91" route="r17967" type="CarDefault" departLane="random" />
	<vehicle id="v7651" depart="308.11" route="sr10891" type="CarDefault" departLane="random" />
	<vehicle id="v5752" depart="309.64" route="r17967" type="CarDefault" departLane="random" />
	<vehicle id="v6677" depart="311.11" route="r17966" type="CarDefault" departLane="random" />
	<vehicle id="v5753" depart="313.37" route="r17967" type="CarDefault" departLane="random" />
	<vehicle id="v7652" depart="316.22" route="sr10891" type="CarDefault" departLane="random" />
	<vehicle id="v5754" depart="317.1" route="r17967" type="CarDefault" departLane="random" />
	<vehicle id="v6678" depart="318.52" route="r17966" type="CarDefault" departLane="random" />
	<vehicle id="v5755" depart="320.83" route="r17967" type="CarDefault" departLane="random" />
	<vehicle id="v7653" depart="324.32" route="sr10891" type="CarDefault" departLane="random" />
	<vehicle id="v5756" depart="324.56" route="r17967" type="CarDefault" departLane="random" />
	<vehicle id="v6679" depart="325.93" route="r17966" type="CarDefault" departLane="random" />
	<vehicle id="v5757" depart="328.29" route="r17967" type="CarDefault" departLane="random" />
	<vehicle id="v5758" depart="332.02" route="r17967" type="CarDefault" departLane="random" />
	<vehicle id="v7654" depart="332.43" route="sr10891" type="CarDefault" departLane="random" />
	<vehicle id="v6680" depart="333.33" route="r17966" type="CarDefault" departLane="random" />
	<vehicle id="v5759" depart="335.75" route="r17967" type="CarDefault" departLane="random" />
	<vehicle id="v5760" depart="339.48" route="r17967" type="CarDefault" departLane="random" />
	<vehicle id="v5595" depart="340" route="r17967" type="CarDefault" departLane="random" />
	<vehicle id="v7655" depart="340.54" route="sr10891" type="CarDefault" departLane="random" />
	<vehicle id="v6681" depart="340.74" route="r17966" type="CarDefault" departLane="random" />
	<vehicle id="v5761" depart="343.21" route="r17967" type="CarDefault" departLane="random" />
	<vehicle id="v5762" depart="346.94" route="r17967" type="CarDefault" departLane="random" />
	<vehicle id="v6682" depart="348.15" route="r17966" type="CarDefault" departLane="random" />
	<vehicle id="v7656" depart="348.65" route="sr10891" type="CarDefault" departLane="random" />
	<vehicle id="v5763" depart="350.67" route="r17967" type="CarDefault" departLane="random" />
	<vehicle id="v5764" depart="354.4" route="r17967" type="CarDefault" departLane="random" />
	<vehicle id="v6683" depart="355.56" route="r17966" type="CarDefault" departLane="random" />
	<vehicle id="v7657" depart="356.76" route="sr10891" type="CarDefault" departLane="random" />
	<vehicle id="v5765" depart="358.13" route="r17967" type="CarDefault" departLane="random" />
	<vehicle id="v5766" depart="361.87" route="r17967" type="CarDefault" departLane="random" />
	<vehicle id="v6684" depart="362.96" route="r17966" type="CarDefault" departLane="random" />
	<vehicle id="v7658" depart="364.86" route="sr10891" type="CarDefault" departLane="random" />
	<vehicle id="v5767" depart="365.6" route="r17967" type="CarDefault" departLane="random" />
	<vehicle id="v5768" depart="369.33" route="r17967" type="CarDefault" departLane="random" />
	<vehicle id="v6685" depart="370.37" route="r17966" type="CarDefault" departLane="random" />
	<vehicle id="v7659" depart="372.97" route="sr10891" type="CarDefault" departLane="random" />
	<vehicle id="v5769" depart="373.06" route="r17967" type="CarDefault" departLane="random" />
	<vehicle id="v5770" depart="376.79" route="r17967" type="CarDefault" departLane="random" />
	<vehicle id="v6686" depart="377.78" route="r17966" type="CarDefault" departLane="random" />
	<vehicle id="v5771" depart="380.52" route="r17967" type="CarDefault" departLane="random" />
	<vehicle id="v7660" depart="381.08" route="sr10891" type="CarDefault" departLane="random" />
	<vehicle id="v5772" depart="384.25" route="r17967" type="CarDefault" departLane="random" />
	<vehicle id="v6687" depart="385.19" route="r17966" type="CarDefault" departLane="random" />
	<vehicle id="v5773" depart="387.98" route="r17967" type="CarDefault" departLane="random" />
	<vehicle id="v7661" depart="389.19" route="sr10891" type="CarDefault" departLane="random" />
	<vehicle id="v5774" depart="391.71" route="r17967" type="CarDefault" departLane="random" />
	<vehicle id="v6688" depart="392.59" route="r17966" type="CarDefault" departLane="random" />
	<vehicle id="v5775" depart="395.44" route="r17967" type="CarDefault" departLane="random" />
	<vehicle id="v7662" depart="397.3" route="sr10891" type="CarDefault" departLane="random" />
	<vehicle id="v5776" depart="399.17" route="r17967" type="CarDefault" departLane="random" />
	<vehicle id="v6689" depart="400.0" route="r17966" type="CarDefault" departLane="random" />
	<vehicle id="v5777" depart="402.9" route="r17967" type="CarDefault" departLane="random" />
	<vehicle id="v7663" depart="405.41" route="sr10891" type="CarDefault" departLane="random" />
	<vehicle id="v5778" depart="406.63" route="r17967" type="CarDefault" departLane="random" />
	<vehicle id="v6690" depart="407.41" route="r17966" type="CarDefault" departLane="random" />
	<vehicle id="v5779" depart="410.36" route="r17967" type="CarDefault" departLane="random" />
	<vehicle id="v5596" depart="413" route="r17967" type="CarDefault" departLane="random" />
	<vehicle id="v7664" depart="413.51" route="sr10891" type="CarDefault" departLane="random" />
	<vehicle id="v5780" depart="414.09" route="r17967" type="CarDefault" departLane="random" />
	<vehicle id="v6691" depart="414.81" route="r17966" type="CarDefault" departLane="random" />
	<vehicle id="v5781" depart="417.82" route="r17967" type="CarDefault" departLane="random" />
	<vehicle id="v5597" depart="420" route="r17967" type="CarDefault" departLane="random" />
	<vehicle id="v5782" depart="421.55" route="r17967" type="CarDefault" departLane="random" />
	<vehicle id="v7665" depart="421.62" route="sr10891" type="CarDefault" departLane="random" />
	<vehicle id="v6692" depart="422.22" route="r17966" type="CarDefault" departLane="random" />
	<vehicle id="v5783" depart="425.28" route="r17967" type="CarDefault" departLane="random" />
	<vehicle id="v5784" depart="429.02" route="r17967" type="CarDefault" departLane="random" />
	<vehicle id="v6693" depart="429.63" route="r17966" type="CarDefault" departLane="random" />
	<vehicle id="v7666" depart="429.73" route="sr10891" type="CarDefault" departLane="random" />
	<vehicle id="v5785" depart="432.75" route="r17967" type="CarDefault" departLane="random" />
	<vehicle id="v5786" depart="436.48" route="r17967" type="CarDefault" departLane="random" />
	<vehicle id="v6694" depart="437.04" route="r17966" type="CarDefault" departLane="random" />
	<vehicle id="v7667" depart="437.84" route="sr10891" type="CarDefault" departLane="random" />
	<vehicle id="v5787" depart="440.21" route="r17967" type="CarDefault" departLane="random" />
	<vehicle id="v5788" depart="443.94" route="r17967" type="CarDefault" departLane="random" />
	<vehicle id="v6695" depart="444.44" route="r17966" type="CarDefault" departLane="random" />
	<vehicle id="v7668" depart="445.95" route="sr10891" type="CarDefault" departLane="random" />
	<vehicle id="v5789" depart="447.67" route="r17967" type="CarDefault" departLane="random" />
	<vehicle id="v5790" depart="451.4" route="r17967" type="CarDefault" departLane="random" />
	<vehicle id="v6696" depart="451.85" route="r17966" type="CarDefault" departLane="random" />
	<vehicle id="v7669" depart="454.05" route="sr10891" type="CarDefault" departLane="random" />
	<vehicle id="v5791" depart="455.13" route="r17967" type="CarDefault" departLane="random" />
	<vehicle id="v5598" depart="456" route="r17967" type="CarDefault" departLane="random" />
	<vehicle id="v5792" depart="458.86" route="r17967" type="CarDefault" departLane="random" />
	<vehicle id="v6697" depart="459.26" route="r17966" type="CarDefault" departLane="random" />
	<vehicle id="v7670" depart="462.16" route="sr10891" type="CarDefault" departLane="random" />
	<vehicle id="v5793" depart="462.59" route="r17967" type="CarDefault" departLane="random" />
	<vehicle id="v5794" depart="466.32" route="r17967" type="CarDefault" departLane="random" />
	<vehicle id="v6698" depart="466.67" route="r17966" type="CarDefault" departLane="random" />
	<vehicle id="v5795" depart="470.05" route="r17967" type="CarDefault" departLane="random" />
	<vehicle id="v7671" depart="470.27" route="sr10891" type="CarDefault" departLane="random" />
	<vehicle id="v5796" depart="473.78" route="r17967" type="CarDefault" departLane="random" />
	<vehicle id="v5599" depart="474" route="r17967" type="CarDefault" departLane="random" />
	<vehicle id="v6699" depart="474.07" route="r17966" type="CarDefault" departLane="random" />
	<vehicle id="v5797" depart="477.51" route="r17967" type="CarDefault" departLane="random" />
	<vehicle id="v7672" depart="478.38" route="sr10891" type="CarDefault" departLane="random" />
	<vehicle id="v5798" depart="481.24" route="r17967" type="CarDefault" departLane="random" />
	<vehicle id="v6700" depart="481.48" route="r17966" type="CarDefault" departLane="random" />
	<vehicle id="v5799" depart="484.97" route="r17967" type="CarDefault" departLane="random" />
	<vehicle id="v7673" depart="486.49" route="sr10891" type="CarDefault" departLane="random" />
	<vehicle id="v5800" depart="488.7" route="r17967" type="CarDefault" departLane="random" />
	<vehicle id="v6701" depart="488.89" route="r17966" type="CarDefault" departLane="random" />
	<vehicle id="v5801" depart="492.44" route="r17967" type="CarDefault" departLane="random" />
	<vehicle id="v7674" depart="494.59" route="sr10891" type="CarDefault" departLane="random" />
	<vehicle id="v5802" depart="496.17" route="r17967" type="CarDefault" departLane="random" />
	<vehicle id="v6702" depart="496.3" route="r17966" type="CarDefault" departLane="random" />
	<vehicle id="v5803" depart="499.9" route="r17967" type="CarDefault" departLane="random" />
	<vehicle id="v7675" depart="502.7" route="sr10891" type="CarDefault" departLane="random" />
	<vehicle id="v5804" depart="503.63" route="r17967" type="CarDefault" departLane="random" />
	<vehicle id="v6703" depart="503.7" route="r17966" type="CarDefault" departLane="random" />
	<vehicle id="v5805" depart="507.36" route="r17967" type="CarDefault" departLane="random" />
	<vehicle id="v7676" depart="510.81" route="sr10891" type="CarDefault" departLane="random" />
	<vehicle id="v5806" depart="511.09" route="r17967" type="CarDefault" departLane="random" />
	<vehicle id="v6704" depart="511.11" route="r17966" type="CarDefault" departLane="random" />
	<vehicle id="v5807" depart="514.82" route="r17967" type="CarDefault" departLane="random" />
	<vehicle id="v6705" depart="518.52" route="r17966" type="CarDefault" departLane="random" />
	<vehicle id="v5808" depart="518.55" route="r17967" type="CarDefault" departLane="random" />
	<vehicle id="v7677" depart="518.92" route="sr10891" type="CarDefault" departLane="random" />
	<vehicle id="v5809" depart="522.28" route="r17967" type="CarDefault" departLane="random" />
	<vehicle id="v6706" depart="525.93" route="r17966" type="CarDefault" departLane="random" />
	<vehicle id="v5810" depart="526.01" route="r17967" type="CarDefault" departLane="random" />
	<vehicle id="v7678" depart="527.03" route="sr10891" type="CarDefault" departLane="random" />
	<vehicle id="v5811" depart="529.74" route="r17967" type="CarDefault" departLane="random" />
	<vehicle id="v5600" depart="533" route="r17967" type="CarDefault" departLane="random" />
	<vehicle id="v6707" depart="533.33" route="r17966" type="CarDefault" departLane="random" />
	<vehicle id="v5812" depart="533.47" route="r17967" type="CarDefault" departLane="random" />
	<vehicle id="v7679" depart="535.14" route="sr10891" type="CarDefault" departLane="random" />
	<vehicle id="v5813" depart="537.2" route="r17967" type="CarDefault" departLane="random" />
	<vehicle id="v6708" depart="540.74" route="r17966" type="CarDefault" departLane="random" />
	<vehicle id="v5814" depart="540.93" route="r17967" type="CarDefault" departLane="random" />
	<vehicle id="v7680" depart="543.24" route="sr10891" type="CarDefault" departLane="random" />
	<vehicle id="v5815" depart="544.66" route="r17967" type="CarDefault" departLane="random" />
	<vehicle id="v6709" depart="548.15" route="r17966" type="CarDefault" departLane="random" />
	<vehicle id="v5816" depart="548.39" route="r17967" type="CarDefault" departLane="random" />
	<vehicle id="v7681" depart="551.35" route="sr10891" type="CarDefault" departLane="random" />
	<vehicle id="v5817" depart="552.12" route="r17967" type="CarDefault" departLane="random" />
	<vehicle id="v6710" depart="555.56" route="r17966" type="CarDefault" departLane="random" />
	<vehicle id="v5818" depart="555.85" route="r17967" type="CarDefault" departLane="random" />
	<vehicle id="v5601" depart="559" route="r17967" type="CarDefault" departLane="random" />
	<vehicle id="v7682" depart="559.46" route="sr10891" type="CarDefault" departLane="random" />
	<vehicle id="v5819" depart="559.59" route="r17967" type="CarDefault" departLane="random" />
	<vehicle id="v6711" depart="562.96" route="r17966" type="CarDefault" departLane="random" />