<?xml version='1.0' encoding='utf-8'?>
<routes>
	<vType accel="3.0" decel="6.0" id="CarDefault" length="5.0" minGap="2.5" maxSpeed="50.0" sigma="0.5" />
	<route id="sr10771" edges="488 975 976 743 744 745 741 742 430 210 12 11 341 627 628 967 968 957 958 511 512 513 890 891 766 1018 1019 1020 1021 1022 898 961 1017 960 706" fromJunction="357" toJunction="248" />
	<route id="sr10772" edges="288 287 739 415 233 886 774 502 892 893 503 13 229 972 479 480 922 712 487 711 254 386 390 389 388 822" fromJunction="241" toJunction="316" />
	<route id="sr10773" edges="794 919 920 921 922 712 487 482 483 710 709 932 933 934 935 426 425 769 513 890 891 766 1018 1019 1020 1021 1022 898 961 1017 960 706" fromJunction="292" toJunction="248" />
	<vehicle id="v2401" depart="0.0" route="sr10771" type="CarDefault" departLane="random" />
	<vehicle id="v3481" depart="0.0" route="sr10772" type="CarDefault" departLane="random" />
	<vehicle id="v4276" depart="0.0" route="sr10773" type="CarDefault" departLane="random" />
	<vehicle id="v4277" depart="5.45" route="sr10773" type="CarDefault" departLane="random" />
	<vehicle id="v4188" depart="6" route="sr10773" type="CarDefault" departLane="random" />
	<vehicle id="v2402" depart="6.7" route="sr10771" type="CarDefault" departLane="random" />
	<vehicle id="v3482" depart="10.26" route="sr10772" type="CarDefault" departLane="random" />
	<vehicle id="v4278" depart="10.91" route="sr10773" type="CarDefault" departLane="random" />
	<vehicle id="v2403" depart="13.41" route="sr10771" type="CarDefault" departLane="random" />
	<vehicle id="v4279" depart="16.36" route="sr10773" type="CarDefault" departLane="random" />
	<vehicle id="v2404" depart="20.11" route="sr10771" type="CarDefault" departLane="random" />
	<vehicle id="v3483" depart="20.51" route="sr10772" type="CarDefault" departLane="random" />
	<vehicle id="v4280" depart="21.82" route="sr10773" type="CarDefault" departLane="random" />
	<vehicle id="v2405" depart="26.82" route="sr10771" type="CarDefault" departLane="random" />
	<vehicle id="v4281" depart="27.27" route="sr10773" type="CarDefault" departLane="random" />
	<vehicle id="v3484" depart="30.77" route="sr10772" type="CarDefault" departLane="random" />
	<vehicle id="v4282" depart="32.73" route="sr10773" type="CarDefault" departLane="random" />
	<vehicle id="v2406" depart="33.52" route="sr10771" type="CarDefault" departLane="random" />
	<vehicle id="v4283" depart="38.18" route="sr10773" type="CarDefault" departLane="random" />
	<vehicle id="v2407" depart="40.22" route="sr10771" type="CarDefault" departLane="random" />
	<vehicle id="v3485" depart="41.03" route="sr10772" type="CarDefault" departLane="random" />
	<vehicle id="v4284" depart="43.64" route="sr10773" type="CarDefault" departLane="random" />
	<vehicle id="v2408" depart="46.93" route="sr10771" type="CarDefault" departLane="random" />
	<vehicle id="v4285" depart="49.09" route="sr10773" type="CarDefault" departLane="random" />
	<vehicle id="v3486" depart="51.28" route="sr10772" type="CarDefault" departLane="random" />
	<vehicle id="v2409" depart="53.63" route="sr10771" type="CarDefault" departLane="random" />
	<vehicle id="v4286" depart="54.55" route="sr10773" type="CarDefault" departLane="random" />
	<vehicle id="v4287" depart="60.0" route="sr10773" type="CarDefault" departLane="random" />
	<vehicle id="v2410" depart="60.34" route="sr10771" type="CarDefault" departLane="random" />
	<vehicle id="v3487" depart="61.54" route="sr10772" type="CarDefault" departLane="random" />
	<vehicle id="v4189" depart="62" route="sr10773" type="CarDefault" departLane="random" />
	<vehicle id="v4288" depart="65.45" route="sr10773" type="CarDefault" departLane="random" />
	<vehicle id="v2411" depart="67.04" route="sr10771" type="CarDefault" departLane="random" />
	<vehicle id="v4289" depart="70.91" route="sr10773" type="CarDefault" departLane="random" />
	<vehicle id="v3488" depart="71.79" route="sr10772" type="CarDefault" departLane="random" />
	<vehicle id="v2412" depart="73.74" route="sr10771" type="CarDefault" departLane="random" />
	<vehicle id="v4290" depart="76.36" route="sr10773" type="CarDefault" departLane="random" />
	<vehicle id="v2413" depart="80.45" route="sr10771" type="CarDefault" departLane="random" />
	<vehicle id="v4291" depart="81.82" route="sr10773" type="CarDefault" departLane="random" />
	<vehicle id="v3489" depart="82.05" route="sr10772" type="CarDefault" departLane="random" />
	<vehicle id="v2414" depart="87.15" route="sr10771" type="CarDefault" departLane="random" />
	<vehicle id="v4292" depart="87.27" route="sr10773" type="CarDefault" departLane="random" />
	<vehicle id="v3490" depart="92.31" route="sr10772" type="CarDefault" departLane="random" />
	<vehicle id="v4293" depart="92.73" route="sr10773" type="CarDefault" departLane="random" />
	<vehicle id="v2415" depart="93.85" route="sr10771" type="CarDefault" departLane="random" />
	<vehicle id="v4294" depart="98.18" route="sr10773" type="CarDefault" departLane="random" />
	<vehicle id="v2416" depart="100.56" route="sr10771" type="CarDefault" departLane="random" />
	<vehicle id="v3491" depart="102.56" route="sr10772" type="CarDefault" departLane="random" />
	<vehicle id="v4295" depart="103.64" route="sr10773" type="CarDefault" departLane="random" />
	<vehicle id="v2417" depart="107.26" route="sr10771" type="CarDefault" departLane="random" />
	<vehicle id="v4296" depart="109.09" route="sr10773" type="CarDefault" departLane="random" />
	<vehicle id="v3492" depart="112.82" route="sr10772" type="CarDefault" departLane="random" />
	<vehicle id="v2418" depart="113.97" route="sr10771" type="CarDefault" departLane="random" />
	<vehicle id="v4297" depart="114.55" route="sr10773" type="CarDefault" departLane="random" />
	<vehicle id="v4298" depart="120.0" route="sr10773" type="CarDefault" departLane="random" />
	<vehicle id="v2419" depart="120.67" route="sr10771" type="CarDefault" departLane="random" />
	<vehicle id="v3493" depart="123.08" route="sr10772" type="CarDefault" departLane="random" />
	<vehicle id="v4299" depart="125.45" route="sr10773" type="CarDefault" departLane="random" />
	<vehicle id="v2420" depart="127.37" route="sr10771" type="CarDefault" departLane="random" />
	<vehicle id="v4300" depart="130.91" route="sr10773" type="CarDefault" departLane="random" />
	<vehicle id="v3494" depart="133.33" route="sr10772" type="CarDefault" departLane="random" />
	<vehicle id="v2421" depart="134.08" route="sr10771" type="CarDefault" departLane="random" />
	<vehicle id="v4190" depart="135" route="sr10773" type="CarDefault" departLane="random" />
	<vehicle id="v4301" depart="136.36" route="sr10773" type="CarDefault" departLane="random" />
	<vehicle id="v2422" depart="140.78" route="sr10771" type="CarDefault" departLane="random" />
	<vehicle id="v4191" depart="141" route="sr10773" type="CarDefault" departLane="random" />
	<vehicle id="v4302" depart="141.82" route="sr10773" type="CarDefault" departLane="random" />
	<vehicle id="v3495" depart="143.59" route="sr10772" type="CarDefault" departLane="random" />
	<vehicle id="v4303" depart="147.27" route="sr10773" type="CarDefault" departLane="random" />
	<vehicle id="v2423" depart="147.49" route="sr10771" type="CarDefault" departLane="random" />
	<vehicle id="v4304" depart="152.73" route="sr10773" type="CarDefault" departLane="random" />
	<vehicle id="v3496" depart="153.85" route="sr10772" type="CarDefault" departLane="random" />
	<vehicle id="v2424" depart="154.19" route="sr10771" type="CarDefault" departLane="random" />
	<vehicle id="v4305" depart="158.18" route="sr10773" type="CarDefault" departLane="random" />
	<vehicle id="v2425" depart="160.89" route="sr10771" type="CarDefault" departLane="random" />
	<vehicle id="v4306" depart="163.64" route="sr10773" type="CarDefault" departLane="random" />
	<vehicle id="v3497" depart="164.1" route="sr10772" type="CarDefault" departLane="random" />
	<vehicle id="v2426" depart="167.6" route="sr10771" type="CarDefault" departLane="random" />
	<vehicle id="v4307" depart="169.09" route="sr10773" type="CarDefault" departLane="random" />
	<vehicle id="v2427" depart="174.3" route="sr10771" type="CarDefault" departLane="random" />
	<vehicle id="v3498" depart="174.36" route="sr10772" type="CarDefault" departLane="random" />
	<vehicle id="v4308" depart="174.55" route="sr10773" type="CarDefault" departLane="random" />
	<vehicle id="v4309" depart="180.0" route="sr10773" type="CarDefault" departLane="random" />
	<vehicle id="v2428" depart="181.01" route="sr10771" type="CarDefault" departLane="random" />
	<vehicle id="v3499" depart="184.62" route="sr10772" type="CarDefault" departLane="random" />
	<vehicle id="v4310" depart="185.45" route="sr10773" type="CarDefault" departLane="random" />
	<vehicle id="v2429" depart="187.71" route="sr10771" type="CarDefault" departLane="random" />
	<vehicle id="v4311" depart="190.91" route="sr10773" type="CarDefault" departLane="random" />
	<vehicle id="v2430" depart="194.41" route="sr10771" type="CarDefault" departLane="random" />
	<vehicle id="v3500" depart="194.87" route="sr10772" type="CarDefault" departLane="random" />
	<vehicle id="v4312" depart="196.36" route="sr10773" type="CarDefault" departLane="random" />
	<vehicle id="v2431" depart="201.12" route="sr10771" type="CarDefault" departLane="random" />
	<vehicle id="v4313" depart="201.82" route="sr10773" type="CarDefault" departLane="random" />
	<vehicle id="v3501" depart="205.13" route="sr10772" type="CarDefault" departLane="random" />
	<vehicle id="v4314" depart="207.27" route="sr10773" type="CarDefault" departLane="random" />
	<vehicle id="v2432" depart="207.82" route="sr10771" type="CarDefault" departLane="random" />
	<vehicle id="v4315" depart="212.73" route="sr10773" type="CarDefault" departLane="random" />
	<vehicle id="v2433" depart="214.53" route="sr10771" type="CarDefault" departLane="random" />
	<vehicle id="v3502" depart="215.38" route="sr10772" type="CarDefault" departLane="random" />
	<vehicle id="v4316" depart="218.18" route="sr10773" type="CarDefault" departLane="random" />
	<vehicle id="v2434" depart="221.23" route="sr10771" type="CarDefault" departLane="random" />
	<vehicle id="v4317" depart="223.64" route="sr10773" type="CarDefault" departLane="random" />
	<vehicle id="v3503" depart="225.64" route="sr10772" type="CarDefault" departLane="random" />
	<vehicle id="v2435" depart="227.93" route="sr10771" type="CarDefault" departLane="random" />
	<vehicle id="v4318" depart="229.09" route="sr10773" type="CarDefault" departLane="random" />
	<vehicle id="v4319" depart="234.55" route="sr10773" type="CarDefault" departLane="random" />
	<vehicle id="v2436" depart="234.64" route="sr10771" type="CarDefault" departLane="random" />
	<vehicle id="v3504" depart="235.9" route="sr10772" type="CarDefault" departLane="random" />
	<vehicle id="v4320" depart="240.0" route="sr10773" type="CarDefault" departLane="random" />
	<vehicle id="v2437" depart="241.34" route="sr10771" type="CarDefault" departLane="random" />
	<vehicle id="v4321" depart="245.45" route="sr10773" type="CarDefault" departLane="random" />
	<vehicle id="v3505" depart="246.15" route="sr10772" type="CarDefault" departLane="random" />
	<vehicle id="v2438" depart="248.04" route="sr10771" type="CarDefault" departLane="random" />
	<vehicle id="v4322" depart="250.91" route="sr10773" type="CarDefault" departLane="random" />
	<vehicle id="v4192" depart="254" route="sr10773" type="CarDefault" departLane="random" />
	<vehicle id="v2439" depart="254.75" route="sr10771" type="CarDefault" departLane="random" />
	<vehicle id="v4323" depart="256.36" route="sr10773" type="CarDefault" departLane="random" />
	<vehicle id="v3506" depart="256.41" route="sr10772" type="CarDefault" departLane="random" />
	<vehicle id="v2440" depart="261.45" route="sr10771" type="CarDefault" departLane="random" />
	<vehicle id="v4324" depart="261.82" route="sr10773" type="CarDefault" departLane="random" />
	<vehicle id="v3507" depart="266.67" route="sr10772" type="CarDefault" departLane="random" />
	<vehicle id="v4325" depart="267.27" route="sr10773" type="CarDefault" departLane="random" />
	<vehicle id="v2441" depart="268.16" route="sr10771" type="CarDefault" departLane="random" />
	<vehicle id="v4193" depart="269" route="sr10773" type="CarDefault" departLane="random" />
	<vehicle id="v4326" depart="272.73" route="sr10773" type="CarDefault" departLane="random" />
	<vehicle id="v2442" depart="274.86" route="sr10771" type="CarDefault" departLane="random" />
	<vehicle id="v3508" depart="276.92" route="sr10772" type="CarDefault" departLane="random" />
	<vehicle id="v4327" depart="278.18" route="sr10773" type="CarDefault" departLane="random" />
	<vehicle id="v2443" depart="281.56" route="sr10771" type="CarDefault" departLane="random" />
	<vehicle id="v4328" depart="283.64" route="sr10773" type="CarDefault" departLane="random" />
	<vehicle id="v3509" depart="287.18" route="sr10772" type="CarDefault" departLane="random" />
	<vehicle id="v2444" depart="288.27" route="sr10771" type="CarDefault" departLane="random" />
	<vehicle id="v4329" depart="289.09" route="sr10773" type="CarDefault" departLane="random" />
	<vehicle id="v4330" depart="294.55" route="sr10773" type="CarDefault" departLane="random" />
	<vehicle id="v2445" depart="294.97" route="sr10771" type="CarDefault" departLane="random" />
	<vehicle id="v3510" depart="297.44" route="sr10772" type="CarDefault" departLane="random" />
	<vehicle id="v4331" depart="300.0" route="sr10773" type="CarDefault" departLane="random" />
	<vehicle id="v2446" depart="301.68" route="sr10771" type="CarDefault" departLane="random" />
	<vehicle id="v4332" depart="305.45" route="sr10773" type="CarDefault" departLane="random" />
	<vehicle id="v3511" depart="307.69" route="sr10772" type="CarDefault" departLane="random" />
	<vehicle id="v2447" depart="308.38" route="sr10771" type="CarDefault" departLane="random" />
	<vehicle id="v4333" depart="310.91" route="sr10773" type="CarDefault" departLane="random" />
	<vehicle id="v2448" depart="315.08" route="sr10771" type="CarDefault" departLane="random" />
	<vehicle id="v4334" depart="316.36" route="sr10773" type="CarDefault" departLane="random" />
	<vehicle id="v3512" depart="317.95" route="sr10772" type="CarDefault" departLane="random" />
	<vehicle id="v2449" depart="321.79" route="sr10771" type="CarDefault" departLane="random" />
	<vehicle id="v4335" depart="321.82" route="sr10773" type="CarDefault" departLane="random" />
	<vehicle id="v4194" depart="324" route="sr10773" type="CarDefault" departLane="random" />
	<vehicle id="v4336" depart="327.27" route="sr10773" type="CarDefault" departLane="random" />
	<vehicle id="v3513" depart="328.21" route="sr10772" type="CarDefault" departLane="random" />
	<vehicle id="v2450" depart="328.49" route="sr10771" type="CarDefault" departLane="random" />
	<vehicle id="v4337" depart="332.73" route="sr10773" type="CarDefault" departLane="random" />
	<vehicle id="v2451" depart="335.2" route="sr10771" type="CarDefault" departLane="random" />
	<vehicle id="v4338" depart="338.18" route="sr10773" type="CarDefault" departLane="random" />
	<vehicle id="v3514" depart="338.46" route="sr10772" type="CarDefault" departLane="random" />
	<vehicle id="v2452" depart="341.9" route="sr10771" type="CarDefault" departLane="random" />
	<vehicle id="v4339" depart="343.64" route="sr10773" type="CarDefault" departLane="random" />
	<vehicle id="v2453" depart="348.6" route="sr10771" type="CarDefault" departLane="random" />
	<vehicle id="v3515" depart="348.72" route="sr10772" type="CarDefault" departLane="random" />
	<vehicle id="v4340" depart="349.09" route="sr10773" type="CarDefault" departLane="random" />
	<vehicle id="v4341" depart="354.55" route="sr10773" type="CarDefault" departLane="random" />
	<vehicle id="v2454" depart="355.31" route="sr10771" type="CarDefault" departLane="random" />
	<vehicle id="v3516" depart="358.97" route="sr10772" type="CarDefault" departLane="random" />
	<vehicle id="v4342" depart="360.0" route="sr10773" type="CarDefault" departLane="random" />
	<vehicle id="v2455" depart="362.01" route="sr10771" type="CarDefault" departLane="random" />
	<vehicle id="v4343" depart="365.45" route="sr10773" type="CarDefault" departLane="random" />
	<vehicle id="v2456" depart="368.72" route="sr10771" type="CarDefault" departLane="random" />
	<vehicle id="v3517" depart="369.23" route="sr10772" type="CarDefault" departLane="random" />
	<vehicle id="v4344" depart="370.91" route="sr10773" type="CarDefault" departLane="random" />
	<vehicle id="v2457" depart="375.42" route="sr10771" type="CarDefault" departLane="random" />
	<vehicle id="v4345" depart="376.36" route="sr10773" type="CarDefault" departLane="random" />
	<vehicle id="v3518" depart="379.49" route="sr10772" type="CarDefault" departLane="random" />
	<vehicle id="v4346" depart="381.82" route="sr10773" type="CarDefault" departLane="random" />
	<vehicle id="v2458" depart="382.12" route="sr10771" type="CarDefault" departLane="random" />
	<vehicle id="v4347" depart="387.27" route="sr10773" type="CarDefault" departLane="random" />
	<vehicle id="v2459" depart="388.83" route="sr10771" type="CarDefault" departLane="random" />
	<vehicle id="v3519" depart="389.74" route="sr10772" type="CarDefault" departLane="random" />
	<vehicle id="v4348" depart="392.73" route="sr10773" type="CarDefault" departLane="random" />
	<vehicle id="v2460" depart="395.53" route="sr10771" type="CarDefault" departLane="random" />
	<vehicle id="v4349" depart="398.18" route="sr10773" type="CarDefault" departLane="random" />
	<vehicle id="v3520" depart="400.0" route="sr10772" type="CarDefault" departLane="random" />
	<vehicle id="v2461" depart="402.23" route="sr10771" type="CarDefault" departLane="random" />
	<vehicle id="v4350" depart="403.64" route="sr10773" type="CarDefault" departLane="random" />
	<vehicle id="v2462" depart="408.94" route="sr10771" type="CarDefault" departLane="random" />
	<vehicle id="v4351" depart="409.09" route="sr10773" type="CarDefault" departLane="random" />
	<vehicle id="v3521" depart="410.26" route="sr10772" type="CarDefault" departLane="random" />
	<vehicle id="v4352" depart="414.55" route="sr10773" type="CarDefault" departLane="random" />
	<vehicle id="v2463" depart="415.64" route="sr10771" type="CarDefault" departLane="random" />
	<vehicle id="v4353" depart="420.0" route="sr10773" type="CarDefault" departLane="random" />
	<vehicle id="v3522" depart="420.51" route="sr10772" type="CarDefault" departLane="random" />
	<vehicle id="v2464" depart="422.35" route="sr10771" type="CarDefault" departLane="random" />
	<vehicle id="v4354" depart="425.45" route="sr10773" type="CarDefault" departLane="random" />
	<vehicle id="v2465" depart="429.05" route="sr10771" type="CarDefault" departLane="random" />
	<vehicle id="v3523" depart="430.77" route="sr10772" type="CarDefault" departLane="random" />
	<vehicle id="v4355" depart="430.91" route="sr10773" type="CarDefault" departLane="random" />
	<vehicle id="v4195" depart="432" route="sr10773" type="CarDefault" departLane="random" />
	<vehicle id="v2466" depart="435.75" route="sr10771" type="CarDefault" departLane="random" />
	<vehicle id="v4356" depart="436.36" route="sr10773" type="CarDefault" departLane="random" />
	<vehicle id="v3524" depart="441.03" route="sr10772" type="CarDefault" departLane="random" />
	<vehicle id="v4357" depart="441.82" route="sr10773" type="CarDefault" departLane="random" />
	<vehicle id="v2467" depart="442.46" route="sr10771" type="CarDefault" departLane="random" />
	<vehicle id="v4358" depart="447.27" route="sr10773" type="CarDefault" departLane="random" />
	<vehicle id="v2468" depart="449.16" route="sr10771" type="CarDefault" departLane="random" />
	<vehicle id="v3525" depart="451.28" route="sr10772" type="CarDefault" departLane="random" />
	<vehicle id="v4359" depart="452.73" route="sr10773" type="CarDefault" departLane="random" />
	<vehicle id="v2469" depart="455.87" route="sr10771" type="CarDefault" departLane="random" />
	<vehicle id="v4196" depart="456" route="sr10773" type="CarDefault" departLane="random" />
	<vehicle id="v4360" depart="458.18" route="sr10773" type="CarDefault" departLane="random" />
	<vehicle id="v3526" depart="461.54" route="sr10772" type="CarDefault" departLane="random" />
	<vehicle id="v2470" depart="462.57" route="sr10771" type="CarDefault" departLane="random" />
	<vehicle id="v4361" depart="463.64" route="sr10773" type="CarDefault" departLane="random" />
	<vehicle id="v4362" depart="469.09" route="sr10773" type="CarDefault" departLane="random" />
	<vehicle id="v2471" depart="469.27" route="sr10771" type="CarDefault" departLane="random" />
	<vehicle id="v3527" depart="471.79" route="sr10772" type="CarDefault" departLane="random" />
	<vehicle id="v4363" depart="474.55" route="sr10773" type="CarDefault" departLane="random" />
	<vehicle id="v2472" depart="475.98" route="sr10771" type="CarDefault" departLane="random" />
	<vehicle id="v4364" depart="480.0" route="sr10773" type="CarDefault" departLane="random" />
	<vehicle id="v3528" depart="482.05" route="sr10772" type="CarDefault" departLane="random" />
	<vehicle id="v2473" depart="482.68" route="sr10771" type="CarDefault" departLane="random" />
	<vehicle id="v4365" depart="485.45" route="sr10773" type="CarDefault" departLane="random" />
	<vehicle id="v4197" depart="489" route="sr10773" type="CarDefault" departLane="random" />
	<vehicle id="v2474" depart="489.39" route="sr10771" type="CarDefault" departLane="random" />
	<vehicle id="v4366" depart="490.91" route="sr10773" type="CarDefault" departLane="random" />
	<vehicle id="v3529" depart="492.31" route="sr10772" type="CarDefault" departLane="random" />
	<vehicle id="v2475" depart="496.09" route="sr10771" type="CarDefault" departLane="random" />
	<vehicle id="v4367" depart="496.36" route="sr10773" type="CarDefault" departLane="random" />
	<vehicle id="v4368" depart="501.82" route="sr10773" type="CarDefault" departLane="random" />
	<vehicle id="v3530" depart="502.56" route="sr10772" type="CarDefault" departLane="random" />
	<vehicle id="v2476" depart="502.79" route="sr10771" type="CarDefault" departLane="random" />
	<vehicle id="v4369" depart="507.27" route="sr10773" type="CarDefault" departLane="random" />
	<vehicle id="v2477" depart="509.5" route="sr10771" type="CarDefault" departLane="random" />
	<vehicle id="v4370" depart="512.73" route="sr10773" type="CarDefault" departLane="random" />
	<vehicle id="v3531" depart="512.82" route="sr10772" type="CarDefault" departLane="random" />
	<vehicle id="v2478" depart="516.2" route="sr10771" type="CarDefault" departLane="random" />
	<vehicle id="v4371" depart="518.18" route="sr10773" type="CarDefault" departLane="random" />
	<vehicle id="v2479" depart="522.91" route="sr10771" type="CarDefault" departLane="random" />
	<vehicle id="v3532" depart="523.08" route="sr10772" type="CarDefault" departLane="random" />
	<vehicle id="v4372" depart="523.64" route="sr10773" type="CarDefault" departLane="random" />
	<vehicle id="v4373" depart="529.09" route="sr10773" type="CarDefault" departLane="random" />
	<vehicle id="v2480" depart="529.61" route="sr10771" type="CarDefault" departLane="random" />
	<vehicle id="v3533" depart="533.33" route="sr10772" type="CarDefault" departLane="random" />
	<vehicle id="v4374" depart="534.55" route="sr10773" type="CarDefault" departLane="random" />
	<vehicle id="v2481" depart="536.31" route="sr10771" type="CarDefault" departLane="random" />
	<vehicle id="v4375" depart="540.0" route="sr10773" type="CarDefault" departLane="random" />
	<vehicle id="v2482" depart="543.02" route="sr10771" type="CarDefault" departLane="random" />
	<vehicle id="v3534" depart="543.59" route="sr10772" type="CarDefault" departLane="random" />
	<vehicle id="v4376" depart="545.45" route="sr10773" type="CarDefault" departLane="random" />
	<vehicle id="v2483" depart="549.72" route="sr10771" type="CarDefault" departLane="random" />
	<vehicle id="v4377" depart="550.91" route="sr10773" type="CarDefault" departLane="random" />
	<vehicle id="v3535" depart="553.85" route="sr10772" type="CarDefault" departLane="random" />
	<vehicle id="v4378" depart="556.36" route="sr10773" type="CarDefault" departLane="random" />
	<vehicle id="v2484" depart="556.42" route="sr10771" type="CarDefault" departLane="random" />
	<vehicle id="v4379" depart="561.82" route="sr10773" type="CarDefault" departLane="random" />
	<vehicle id="v2485" depart="563.13" route="sr10771" type="CarDefault" departLane="random" />
	<vehicle id="v3536" depart="564.1" route="sr10772" type="CarDefault" departLane="random" />
	<vehicle id="v4380" depart="567.27" route="sr10773" type="CarDefault" departLane="random" />
	<vehicle id="v2486" depart="569.83" route="sr10771" type="CarDefault" departLane="random" />
	<vehicle id="v4381" depart="572.73" route="sr10773" type="CarDefault" departLane="random" />
	<vehicle id="v3537" depart="574.36" route="sr10772" type="CarDefault" departLane="random" />
	<vehicle id="v2487" depart="576.54" route="sr10771" type="CarDefault" departLane="random" />
	<vehicle id="v4382" depart="578.18" route="sr10773" type="CarDefault" departLane="random" />
	<vehicle id="v2488" depart="583.24" route="sr10771" type="CarDefault" departLane="random" />
	<vehicle id="v4383" depart="583.64" route="sr10773" type="CarDefault" departLane="random" />
	<vehicle id="v3538" depart="584.62" route="sr10772" type="CarDefault" departLane="random" />
	<vehicle id="v4384" depart="589.09" route="sr10773" type="CarDefault" departLane="random" />
	<vehicle id="v2489" depart="589.94" route="sr10771" type="CarDefault" departLane="random" />
	<vehicle id="v4198" depart="594" route="sr10773" type="CarDefault" departLane="random" />
	<vehicle id="v4385" depart="594.55" route="sr10773" type="CarDefault" departLane="random" />
	<vehicle id="v3539" depart="594.87" route="sr10772" type="CarDefault" departLane="random" />
	<vehicle id="v2490" depart="596.65" route="sr10771" type="CarDefault" departLane="random" />
	<vehicle id="v4386" depart="600.0" route="sr10773" type="CarDefault" departLane="random" />
	<vehicle id="v2491" depart="603.35" route="sr10771" type="CarDefault" departLane="random" />
	<vehicle id="v4199" depart="605" route="sr10773" type="CarDefault" departLane="random" />
	<vehicle id="v3540" depart="605.13" route="sr10772" type="CarDefault" departLane="random" />
	<vehicle id="v4387" depart="605.45" route="sr10773" type="CarDefault" departLane="random" />
	<vehicle id="v3608" depart="609" route="sr10772" type="CarDefault" departLane="random" />
	<vehicle id="v2492" depart="610.06" route="sr10771" type="CarDefault" departLane="random" />
	<vehicle id="v4388" depart="610.91" route="sr10773" type="CarDefault" departLane="random" />
	<vehicle id="v2597" depart="613" route="sr10771" type="CarDefault" departLane="random" />
	<vehicle id="v3541" depart="615.38" route="sr10772" type="CarDefault" departLane="random" />
	<vehicle id="v4389" depart="616.36" route="sr10773" type="CarDefault" departLane="random" />
	<vehicle id="v2493" depart="616.76" route="sr10771" type="CarDefault" departLane="random" />
	<vehicle id="v4390" depart="621.82" route="sr10773" type="CarDefault" departLane="random" />
	<vehicle id="v2494" depart="623.46" route="sr10771" type="CarDefault" departLane="random" />
	<vehicle id="v3542" depart="625.64" route="sr10772" type="CarDefault" departLane="random" />
	<vehicle id="v4200" depart="626" route="sr10773" type="CarDefault" departLane="random" />
	<vehicle id="v4391" depart="627.27" route="sr10773" type="CarDefault" departLane="random" />
	<vehicle id="v2495" depart="630.17" route="sr10771" type="CarDefault" departLane="random" />
	<vehicle id="v4392" depart="632.73" route="sr10773" type="CarDefault" departLane="random" />
	<vehicle id="v3543" depart="635.9" route="sr10772" type="CarDefault" departLane="random" />
	<vehicle id="v2496" depart="636.87" route="sr10771" type="CarDefault" departLane="random" />
	<vehicle id="v4393" depart="638.18" route="sr10773" type="CarDefault" departLane="random" />
	<vehicle id="v2497" depart="643.58" route="sr10771" type="CarDefault" departLane="random" />
	<vehicle id="v4394" depart="643.64" route="sr10773" type="CarDefault" departLane="random" />
	<vehicle id="v3603" depart="645" route="sr10772" type="CarDefault" departLane="random" />
	<vehicle id="v4201" depart="645" route="sr10773" type="CarDefault" departLane="random" />
	<vehicle id="v3544" depart="646.15" route="sr10772" type="CarDefault" departLane="random" />
	<vehicle id="v4395" depart="649.09" route="sr10773" type="CarDefault" departLane="random" />
	<vehicle id="v2498" depart="650.28" route="sr10771" type="CarDefault" departLane="random" />
	<vehicle id="v3599" depart="654" route="sr10772" type="CarDefault" departLane="random" />
	<vehicle id="v4396" depart="654.55" route="sr10773" type="CarDefault" departLane="random" />
	<vehicle id="v3611" depart="656" route="sr10772" type="CarDefault" departLane="random" />
	<vehicle id="v3545" depart="656.41" route="sr10772" type="CarDefault" departLane="random" />
	<vehicle id="v2499" depart="656.98" route="sr10771" type="CarDefault" departLane="random" />
	<vehicle id="v4397" depart="660.0" route="sr10773" type="CarDefault" departLane="random" />
	<vehicle id="v2584" depart="663" route="sr10771" type="CarDefault" departLane="random" />
	<vehicle id="v2500" depart="663.69" route="sr10771" type="CarDefault" departLane="random" />
	<vehicle id="v2589" depart="665" route="sr10771" type="CarDefault" departLane="random" />
	<vehicle id="v4398" depart="665.45" route="sr10773" type="CarDefault" departLane="random" />
	<vehicle id="v3600" depart="666" route="sr10772" type="CarDefault" departLane="random" />
	<vehicle id="v3546" depart="666.67" route="sr10772" type="CarDefault" departLane="random" />
	<vehicle id="v2501" depart="670.39" route="sr10771" type="CarDefault" departLane="random" />