<?xml version='1.0' encoding='utf-8'?>
<net xmlns:xsi="http://www.w3.org/2001/XMLSchema-instance" version="1.9" junctionCornerDetail="5" limitTurnSpeed="5.50" xsi:noNamespaceSchemaLocation="http://sumo.dlr.de/xsd/net_file.xsd">
	<location netOffset="-336586.08,3754670.31" convBoundary="0.00,12.34,2071.19,2139.47" origBoundary="151.232525,-33.920080,151.266296,-33.899237" projParameter="+proj=utm +zone=56 +ellps=WGS84 +datum=WGS84 +units=m +no_defs" />
	<subgraphs>
		<subgraph id="sg0" from_junction="292" to_junction="248" edges="947,695,75,574,768,134,136,513,99,746,884,934,791,885,891,483,382,590,471,1021,866,345,6,496,387,266,35,482,101,968,698,334,284,997,867,244,250,932,1005,808,938,407,253,499,550,898,699,777,707,714,289,937,1017,512,439,386,384,342,89,920,480,919,236,958,632,371,1018,53,74,1007,92,915,311,878,922,779,921,935,133,599,869,788,290,498,829,796,268,237,531,936,532,784,86,252,795,42,710,725,425,706,967,230,254,190,712,479,544,1003,551,5,107,7,834,52,539,933,577,269,578,102,98,373,87,245,587,56,135,766,797,769,924,487,77,730,217,1020,286,285,383,792,950,511,170,375,1006,1004,385,1019,833,54,928,894,1022,545,721,763,709,97,713,970,887,381,711,807,335,93,923,708,1002,762,262,858,267,76,794,283,929,376,686,423,806,440,424,809,961,374,859,926,55,263,189,128,890,592,46,103,957,104,500,552,192,972,47,543,34,944,960,426,380" />
		<subgraph id="sg1" from_junction="357" to_junction="248" edges="695,82,574,768,742,99,743,934,791,891,341,382,590,6,387,35,698,405,250,932,1005,368,808,111,499,583,11,898,777,707,289,1017,439,386,384,342,89,480,236,488,371,476,1007,541,129,92,311,878,779,130,305,935,989,132,498,290,62,237,774,531,229,210,252,795,42,710,725,126,706,254,744,712,479,544,551,956,5,107,7,539,577,741,578,98,112,373,245,766,797,769,604,77,415,124,217,127,962,16,511,1006,605,1022,975,18,990,927,721,763,97,711,93,807,708,762,262,489,283,886,929,686,423,806,424,374,627,859,38,55,128,890,592,103,870,104,552,192,972,47,430,944,426,361,947,75,976,134,136,513,884,746,13,1009,885,315,83,131,546,483,1021,866,345,266,968,482,101,334,284,997,867,394,233,825,244,963,938,608,253,17,12,550,699,937,811,512,958,632,1018,563,502,74,984,505,922,921,133,599,869,829,796,268,520,936,784,86,521,871,985,549,425,967,230,190,1003,614,834,933,269,585,2,102,110,87,587,56,135,955,514,487,730,1020,286,628,285,792,950,170,745,375,1004,385,1019,833,928,894,545,970,709,381,335,14,369,1002,125,858,267,76,615,84,548,15,961,616,263,189,957,46,500,547,543,34,960,380" />
		<subgraph id="sg2" from_junction="241" to_junction="316" edges="947,472,591,768,99,884,513,136,13,885,891,546,483,590,496,387,266,594,968,482,287,588,405,284,828,233,932,1005,938,253,339,17,827,550,822,389,390,811,512,399,386,388,384,485,486,439,89,480,830,958,554,371,1018,90,502,1007,892,288,92,930,922,779,893,498,290,62,829,796,268,774,235,531,936,378,805,86,229,931,252,739,948,42,710,400,549,810,967,254,821,230,712,479,544,551,1003,107,834,611,933,940,501,269,578,98,110,373,87,135,766,21,896,197,428,487,20,19,553,415,595,286,285,628,383,16,511,377,375,1006,379,1004,385,833,826,793,928,894,18,713,709,381,887,711,93,335,708,875,1002,267,76,886,283,478,376,548,809,15,374,627,38,890,874,592,957,941,46,318,503,552,939,547,391,812,972,47,543,380" />
	</subgraphs>
	<type id="highway.bridleway" priority="1" numLanes="1" speed="2.78" allow="pedestrian" oneway="1" width="2.00" />
	<type id="highway.bus_guideway" priority="1" numLanes="1" speed="27.78" allow="bus" oneway="1" />
	<type id="highway.cycleway" priority="1" numLanes="1" speed="8.33" allow="bicycle" oneway="0" width="1.00" />
	<type id="highway.footway" priority="1" numLanes="1" speed="2.78" allow="pedestrian" oneway="1" width="2.00" />
	<type id="highway.ford" priority="1" numLanes="1" speed="2.78" allow="army" oneway="0" />
	<type id="highway.living_street" priority="2" numLanes="1" speed="2.78" disallow="tram rail_urban rail rail_electric rail_fast ship" oneway="0" />
	<type id="highway.motorway" priority="14" numLanes="2" speed="39.44" allow="private emergency authority army vip passenger hov taxi bus coach delivery truck trailer motorcycle evehicle custom1 custom2" oneway="1" />
	<type id="highway.motorway_link" priority="9" numLanes="1" speed="22.22" allow="private emergency authority army vip passenger hov taxi bus coach delivery truck trailer motorcycle evehicle custom1 custom2" oneway="1" />
	<type id="highway.path" priority="1" numLanes="1" speed="2.78" allow="pedestrian bicycle" oneway="0" width="2.00" />
	<type id="highway.pedestrian" priority="1" numLanes="1" speed="2.78" allow="pedestrian" oneway="1" width="2.00" />
	<type id="highway.primary" priority="12" numLanes="2" speed="27.78" disallow="tram rail_urban rail rail_electric rail_fast ship" oneway="0" />
	<type id="highway.primary_link" priority="7" numLanes="1" speed="22.22" disallow="tram rail_urban rail rail_electric rail_fast ship" oneway="0" />
	<type id="highway.raceway" priority="15" numLanes="2" speed="83.33" allow="vip" oneway="0" />
	<type id="highway.residential" priority="3" numLanes="1" speed="13.89" disallow="tram rail_urban rail rail_electric rail_fast ship" oneway="0" />
	<type id="highway.secondary" priority="11" numLanes="1" speed="27.78" disallow="tram rail_urban rail rail_electric rail_fast ship" oneway="0" />
	<type id="highway.secondary_link" priority="6" numLanes="1" speed="22.22" disallow="tram rail_urban rail rail_electric rail_fast ship" oneway="0" />
	<type id="highway.service" priority="1" numLanes="1" speed="5.56" allow="pedestrian delivery bicycle" oneway="0" />
	<type id="highway.stairs" priority="1" numLanes="1" speed="1.39" allow="pedestrian" oneway="1" width="2.00" />
	<type id="highway.step" priority="1" numLanes="1" speed="1.39" allow="pedestrian" oneway="1" width="2.00" />
	<type id="highway.steps" priority="1" numLanes="1" speed="1.39" allow="pedestrian" oneway="1" width="2.00" />
	<type id="highway.tertiary" priority="10" numLanes="1" speed="22.22" disallow="tram rail_urban rail rail_electric rail_fast ship" oneway="0" />
	<type id="highway.tertiary_link" priority="5" numLanes="1" speed="22.22" disallow="tram rail_urban rail rail_electric rail_fast ship" oneway="0" />
	<type id="highway.track" priority="1" numLanes="1" speed="5.56" allow="pedestrian motorcycle moped bicycle" oneway="0" />
	<type id="highway.trunk" priority="13" numLanes="2" speed="27.78" disallow="pedestrian bicycle tram rail_urban rail rail_electric rail_fast ship" oneway="0" />
	<type id="highway.trunk_link" priority="8" numLanes="1" speed="22.22" disallow="pedestrian bicycle tram rail_urban rail rail_electric rail_fast ship" oneway="0" />
	<type id="highway.unclassified" priority="4" numLanes="1" speed="13.89" disallow="tram rail_urban rail rail_electric rail_fast ship" oneway="0" />
	<type id="highway.unsurfaced" priority="1" numLanes="1" speed="8.33" disallow="tram rail_urban rail rail_electric rail_fast ship" oneway="0" />
	<type id="railway.highspeed" priority="21" numLanes="1" speed="69.44" allow="rail_fast" oneway="1" />
	<type id="railway.light_rail" priority="19" numLanes="1" speed="27.78" allow="rail_urban" oneway="1" />
	<type id="railway.preserved" priority="16" numLanes="1" speed="27.78" allow="rail" oneway="1" />
	<type id="railway.rail" priority="20" numLanes="1" speed="44.44" allow="rail" oneway="1" />
	<type id="railway.subway" priority="18" numLanes="1" speed="27.78" allow="rail_urban" oneway="1" />
	<type id="railway.tram" priority="17" numLanes="1" speed="13.89" allow="tram" oneway="1" />
	<edge id=":1_0" function="internal">
		<lane id=":1_0_0" index="0" disallow="tram rail_urban rail rail_electric rail_fast ship" speed="3.93" length="3.39" shape="1578.29,1025.21 1578.23,1026.20 1578.52,1026.84 1579.16,1027.14 1580.15,1027.10" />
	</edge>
	<edge id=":116_0" function="internal">
		<lane id=":116_0_0" index="0" disallow="tram rail_urban rail rail_electric rail_fast ship" speed="13.89" length="0.29" shape="447.16,625.26 447.22,625.54" />
	</edge>
	<edge id=":117_0" function="internal">
		<lane id=":117_0_0" index="0" disallow="tram rail_urban rail rail_electric rail_fast ship" speed="27.78" length="11.21" shape="1466.16,635.93 1477.06,633.29" />
	</edge>
	<edge id=":117_1" function="internal">
		<lane id=":117_1_0" index="0" disallow="tram rail_urban rail rail_electric rail_fast ship" speed="6.38" length="9.06" shape="1466.16,635.93 1468.67,635.72 1470.59,636.38 1471.92,637.90 1472.67,640.28" />
	</edge>
	<edge id=":124_0" function="internal">
		<lane id=":124_0_0" index="0" disallow="tram rail_urban rail rail_electric rail_fast ship" speed="27.78" length="0.30" shape="1387.74,673.85 1387.99,673.69" />
	</edge>
	<edge id=":129_0" function="internal">
		<lane id=":129_0_0" index="0" disallow="tram rail_urban rail rail_electric rail_fast ship" speed="22.22" length="0.10" shape="1918.41,1529.81 1918.47,1529.86" />
	</edge>
	<edge id=":130_0" function="internal">
		<lane id=":130_0_0" index="0" disallow="tram rail_urban rail rail_electric rail_fast ship" speed="3.91" length="3.02" shape="1834.01,1082.28 1834.74,1081.83 1835.39,1081.77 1835.97,1082.08 1836.46,1082.78" />
	</edge>
	<edge id=":132_0" function="internal">
		<lane id=":132_0_0" index="0" disallow="tram rail_urban rail rail_electric rail_fast ship" speed="9.28" length="15.88" shape="1767.28,1120.75 1767.63,1118.06 1769.54,1115.44 1773.02,1112.90 1778.06,1110.42" />
	</edge>
	<edge id=":132_1" function="internal">
		<lane id=":132_1_0" index="0" disallow="tram rail_urban rail rail_electric rail_fast ship" speed="3.65" length="4.67" shape="1767.28,1120.75 1767.88,1119.44 1768.61,1118.92 1769.46,1119.19 1770.44,1120.25" />
	</edge>
	<edge id=":132_2" function="internal">
		<lane id=":132_2_0" index="0" disallow="tram rail_urban rail rail_electric rail_fast ship" speed="6.05" length="9.07" shape="1771.55,1106.79 1772.31,1109.25 1773.65,1110.68 1775.57,1111.07 1778.06,1110.42" />
	</edge>
	<edge id=":132_3" function="internal">
		<lane id=":132_3_0" index="0" disallow="tram rail_urban rail rail_electric rail_fast ship" speed="27.78" length="13.60" shape="1771.55,1106.79 1771.71,1111.01 1771.10,1114.17 1770.43,1117.00 1770.44,1120.25" />
	</edge>
	<edge id=":132_4" function="internal">
		<lane id=":132_4_0" index="0" disallow="tram rail_urban rail rail_electric rail_fast ship" speed="15.28" length="18.29" shape="1760.81,1116.44 1764.90,1115.27 1769.53,1113.71 1774.10,1112.01 1778.06,1110.42" />
	</edge>
	<edge id=":132_5" function="internal">
		<lane id=":132_5_0" index="0" disallow="tram rail_urban rail rail_electric rail_fast ship" speed="7.17" length="11.88" shape="1760.81,1116.44 1764.67,1115.89 1767.56,1116.34 1769.48,1117.79 1770.44,1120.25" />
	</edge>
	<edge id=":135_0" function="internal">
		<lane id=":135_0_0" index="0" disallow="tram rail_urban rail rail_electric rail_fast ship" speed="6.51" length="9.03" shape="1845.85,1202.36 1843.48,1203.11 1841.93,1204.43 1841.18,1206.32 1841.23,1208.80" />
	</edge>
	<edge id=":135_1" function="internal">
		<lane id=":135_1_0" index="0" disallow="tram rail_urban rail rail_electric rail_fast ship" speed="13.89" length="11.20" shape="1845.85,1202.36 1834.79,1204.18" />
	</edge>
	<edge id=":135_2" function="internal">
		<lane id=":135_2_0" index="0" disallow="tram rail_urban rail rail_electric rail_fast ship" speed="7.33" length="2.51" shape="1834.28,1201.02 1836.78,1201.16" />
	</edge>
	<edge id=":135_3" function="internal">
		<lane id=":135_3_0" index="0" disallow="tram rail_urban rail rail_electric rail_fast ship" speed="3.65" length="1.44" shape="1834.28,1201.02 1835.59,1201.61" />
	</edge>
	<edge id=":135_4" function="internal">
		<lane id=":135_4_0" index="0" disallow="tram rail_urban rail rail_electric rail_fast ship" speed="7.33" length="9.22" shape="1836.78,1201.16 1838.78,1202.51 1840.26,1205.05 1841.23,1208.80" />
	</edge>
	<edge id=":135_5" function="internal">
		<lane id=":135_5_0" index="0" disallow="tram rail_urban rail rail_electric rail_fast ship" speed="3.65" length="3.23" shape="1835.59,1201.61 1836.11,1202.34 1835.85,1203.19 1834.79,1204.18" />
	</edge>
	<edge id=":136_0" function="internal">
		<lane id=":136_0_0" index="0" disallow="tram rail_urban rail rail_electric rail_fast ship" speed="22.23" length="8.26" shape="1765.00,1086.42 1765.98,1088.71 1767.35,1090.01 1768.68,1091.31 1769.53,1093.63" />
		<lane id=":136_0_1" index="1" disallow="tram rail_urban rail rail_electric rail_fast ship" speed="22.23" length="8.26" shape="1765.00,1086.42 1766.37,1094.10" />
	</edge>
	<edge id=":137_0" function="internal">
		<lane id=":137_0_0" index="0" disallow="tram rail_urban rail rail_electric rail_fast ship" speed="13.89" length="0.30" shape="1722.56,1443.62 1722.85,1443.62" />
	</edge>
	<edge id=":139_0" function="internal">
		<lane id=":139_0_0" index="0" disallow="tram rail_urban rail rail_electric rail_fast ship" speed="22.22" length="9.33" shape="1979.60,1667.94 1981.16,1677.13" />
	</edge>
	<edge id=":139_1" function="internal">
		<lane id=":139_1_0" index="0" disallow="tram rail_urban rail rail_electric rail_fast ship" speed="6.06" length="7.80" shape="1979.60,1667.94 1979.80,1670.70 1979.49,1672.74 1978.67,1674.04 1977.35,1674.60" />
	</edge>
	<edge id=":139_2" function="internal">
		<lane id=":139_2_0" index="0" disallow="tram rail_urban rail rail_electric rail_fast ship" speed="6.22" length="7.76" shape="1976.95,1671.43 1978.34,1671.64 1979.51,1672.66 1980.45,1674.49 1981.16,1677.13" />
	</edge>
	<edge id=":139_3" function="internal">
		<lane id=":139_3_0" index="0" disallow="tram rail_urban rail rail_electric rail_fast ship" speed="3.65" length="4.67" shape="1976.95,1671.43 1978.24,1672.07 1978.73,1672.81 1978.44,1673.66 1977.35,1674.60" />
	</edge>
	<edge id=":140_0" function="internal">
		<lane id=":140_0_0" index="0" disallow="tram rail_urban rail rail_electric rail_fast ship" speed="7.34" length="2.50" shape="1522.74,1640.95 1522.91,1638.45" />
	</edge>
	<edge id=":140_1" function="internal">
		<lane id=":140_1_0" index="0" disallow="tram rail_urban rail rail_electric rail_fast ship" speed="3.65" length="1.44" shape="1522.74,1640.95 1523.35,1639.64" />
	</edge>
	<edge id=":140_4" function="internal">
		<lane id=":140_4_0" index="0" disallow="tram rail_urban rail rail_electric rail_fast ship" speed="7.34" length="9.23" shape="1522.91,1638.45 1524.27,1636.47 1526.83,1635.00 1530.58,1634.05" />
	</edge>
	<edge id=":140_5" function="internal">
		<lane id=":140_5_0" index="0" disallow="tram rail_urban rail rail_electric rail_fast ship" speed="3.65" length="3.23" shape="1523.35,1639.64 1524.07,1639.12 1524.93,1639.40 1525.90,1640.46" />
	</edge>
	<edge id=":140_2" function="internal">
		<lane id=":140_2_0" index="0" disallow="tram rail_urban rail rail_electric rail_fast ship" speed="6.50" length="9.03" shape="1524.19,1629.39 1524.91,1631.76 1526.22,1633.33 1528.11,1634.09 1530.58,1634.05" />
	</edge>
	<edge id=":140_3" function="internal">
		<lane id=":140_3_0" index="0" disallow="tram rail_urban rail rail_electric rail_fast ship" speed="13.89" length="11.20" shape="1524.19,1629.39 1525.90,1640.46" />
	</edge>
	<edge id=":142_0" function="internal">
		<lane id=":142_0_0" index="0" disallow="tram rail_urban rail rail_electric rail_fast ship" speed="10.69" length="4.87" shape="2069.55,1337.10 2069.83,1338.45 2069.67,1339.41 2069.29,1340.40 2068.91,1341.80" />
	</edge>
	<edge id=":143_0" function="internal">
		<lane id=":143_0_0" index="0" disallow="tram rail_urban rail rail_electric rail_fast ship" speed="11.11" length="0.29" shape="2008.72,1479.46 2008.60,1479.72" />
	</edge>
	<edge id=":145_0" function="internal">
		<lane id=":145_0_0" index="0" disallow="tram rail_urban rail rail_electric rail_fast ship" speed="6.51" length="9.00" shape="1866.36,1361.51 1867.10,1363.87 1868.42,1365.42 1870.31,1366.18 1872.77,1366.14" />
	</edge>
	<edge id=":145_1" function="internal">
		<lane id=":145_1_0" index="0" disallow="tram rail_urban rail rail_electric rail_fast ship" speed="7.31" length="11.69" shape="1866.36,1361.51 1866.64,1365.36 1866.05,1368.23 1864.59,1370.13 1862.27,1371.06" />
	</edge>
	<edge id=":145_2" function="internal">
		<lane id=":145_2_0" index="0" disallow="tram rail_urban rail rail_electric rail_fast ship" speed="13.89" length="11.15" shape="1861.76,1367.90 1872.77,1366.14" />
	</edge>
	<edge id=":145_3" function="internal">
		<lane id=":145_3_0" index="0" disallow="tram rail_urban rail rail_electric rail_fast ship" speed="3.65" length="1.23" shape="1861.76,1367.90 1862.88,1368.42" />
	</edge>
	<edge id=":145_4" function="internal">
		<lane id=":145_4_0" index="0" disallow="tram rail_urban rail rail_electric rail_fast ship" speed="3.65" length="3.44" shape="1862.88,1368.42 1863.07,1368.50 1863.59,1369.23 1863.32,1370.08 1862.27,1371.06" />
	</edge>
	<edge id=":146_0" function="internal">
		<lane id=":146_0_0" index="0" disallow="tram rail_urban rail rail_electric rail_fast ship" speed="13.89" length="0.10" shape="1974.70,1349.79 1974.70,1349.79" />
	</edge>
	<edge id=":147_0" function="internal">
		<lane id=":147_0_0" index="0" disallow="tram rail_urban rail rail_electric rail_fast ship" speed="3.91" length="2.53" shape="1873.38,1196.27 1873.37,1196.96 1873.15,1197.49 1872.71,1197.86 1872.05,1198.07" />
	</edge>
	<edge id=":148_0" function="internal">
		<lane id=":148_0_0" index="0" disallow="tram rail_urban rail rail_electric rail_fast ship" speed="6.06" length="7.82" shape="1767.14,1445.37 1767.52,1443.97 1768.69,1442.98 1770.67,1442.40 1773.44,1442.22" />
	</edge>
	<edge id=":148_1" function="internal">
		<lane id=":148_1_0" index="0" disallow="tram rail_urban rail rail_electric rail_fast ship" speed="3.65" length="4.67" shape="1767.14,1445.37 1767.92,1444.16 1768.72,1443.75 1769.52,1444.14 1770.34,1445.33" />
	</edge>
	<edge id=":148_2" function="internal">
		<lane id=":148_2_0" index="0" disallow="tram rail_urban rail rail_electric rail_fast ship" speed="13.89" length="10.22" shape="1763.97,1442.33 1766.86,1441.74 1768.71,1440.60 1770.57,1439.50 1773.47,1439.03" />
	</edge>
	<edge id=":148_3" function="internal">
		<lane id=":148_3_0" index="0" disallow="tram rail_urban rail rail_electric rail_fast ship" speed="6.06" length="7.82" shape="1763.97,1442.33 1766.74,1442.44 1768.73,1442.98 1769.93,1443.94 1770.34,1445.33" />
	</edge>
	<edge id=":152_0" function="internal">
		<lane id=":152_0_0" index="0" disallow="tram rail_urban rail rail_electric rail_fast ship" speed="8.00" length="4.07" shape="356.83,1065.69 356.82,1061.80 356.89,1061.64" />
	</edge>
	<edge id=":152_1" function="internal">
		<lane id=":152_1_0" index="0" disallow="tram rail_urban rail rail_electric rail_fast ship" speed="3.65" length="1.44" shape="356.83,1065.69 357.45,1064.39" />
	</edge>
	<edge id=":152_6" function="internal">
		<lane id=":152_6_0" index="0" disallow="tram rail_urban rail rail_electric rail_fast ship" speed="8.00" length="10.13" shape="356.89,1061.64 358.06,1058.84 360.55,1056.82 364.28,1055.72" />
	</edge>
	<edge id=":152_7" function="internal">
		<lane id=":152_7_0" index="0" disallow="tram rail_urban rail rail_electric rail_fast ship" speed="3.65" length="3.23" shape="357.45,1064.39 358.18,1063.88 359.03,1064.16 360.00,1065.23" />
	</edge>
	<edge id=":152_2" function="internal">
		<lane id=":152_2_0" index="0" disallow="tram rail_urban rail rail_electric rail_fast ship" speed="6.50" length="9.03" shape="364.74,1058.89 362.36,1059.59 360.78,1060.87 359.99,1062.76 360.00,1065.23" />
	</edge>
	<edge id=":152_3" function="internal">
		<lane id=":152_3_0" index="0" disallow="tram rail_urban rail rail_electric rail_fast ship" speed="3.65" length="4.67" shape="364.74,1058.89 363.44,1058.27 362.93,1057.53 363.21,1056.69 364.28,1055.72" />
	</edge>
	<edge id=":152_4" function="internal">
		<lane id=":152_4_0" index="0" disallow="tram rail_urban rail rail_electric rail_fast ship" speed="6.51" length="9.04" shape="357.93,1050.98 358.63,1053.35 359.92,1054.94 361.81,1055.73 364.28,1055.72" />
	</edge>
	<edge id=":152_5" function="internal">
		<lane id=":152_5_0" index="0" disallow="tram rail_urban rail rail_electric rail_fast ship" speed="13.89" length="14.40" shape="357.93,1050.98 360.00,1065.23" />
	</edge>
	<edge id=":153_0" function="internal">
		<lane id=":153_0_0" index="0" disallow="tram rail_urban rail rail_electric rail_fast ship" speed="13.89" length="9.93" shape="515.82,1667.59 507.62,1661.99" />
	</edge>
	<edge id=":153_1" function="internal">
		<lane id=":153_1_0" index="0" disallow="tram rail_urban rail rail_electric rail_fast ship" speed="6.73" length="3.63" shape="515.17,1660.88 513.32,1662.35 512.13,1662.78" />
	</edge>
	<edge id=":153_2" function="internal">
		<lane id=":153_2_0" index="0" disallow="tram rail_urban rail rail_electric rail_fast ship" speed="6.73" length="4.77" shape="512.13,1662.78 511.44,1663.03 509.54,1662.91 507.62,1661.99" />
	</edge>
	<edge id=":154_0" function="internal">
		<lane id=":154_0_0" index="0" disallow="tram rail_urban rail rail_electric rail_fast ship" speed="27.78" length="0.95" shape="535.65,1825.31 535.49,1825.09 535.40,1824.92 535.35,1824.73 535.33,1824.45" />
	</edge>
	<edge id=":155_0" function="internal">
		<lane id=":155_0_0" index="0" disallow="tram rail_urban rail rail_electric rail_fast ship" speed="15.28" length="0.30" shape="581.02,1198.51 580.71,1198.55" />
	</edge>
	<edge id=":155_1" function="internal">
		<lane id=":155_1_0" index="0" disallow="tram rail_urban rail rail_electric rail_fast ship" speed="15.28" length="0.30" shape="580.31,1195.37 580.60,1195.33" />
	</edge>
	<edge id=":156_0" function="internal">
		<lane id=":156_0_0" index="0" disallow="tram rail_urban rail rail_electric rail_fast ship" speed="6.51" length="9.03" shape="794.98,1706.15 794.27,1703.78 792.98,1702.20 791.09,1701.42 788.62,1701.44" />
	</edge>
	<edge id=":156_1" function="internal">
		<lane id=":156_1_0" index="0" disallow="tram rail_urban rail rail_electric rail_fast ship" speed="13.89" length="14.40" shape="794.98,1706.15 792.85,1691.91" />
	</edge>
	<edge id=":156_2" function="internal">
		<lane id=":156_2_0" index="0" disallow="tram rail_urban rail rail_electric rail_fast ship" speed="3.65" length="1.44" shape="794.98,1706.15 795.60,1704.84" />
	</edge>
	<edge id=":156_9" function="internal">
		<lane id=":156_9_0" index="0" disallow="tram rail_urban rail rail_electric rail_fast ship" speed="3.65" length="3.23" shape="795.60,1704.84 796.33,1704.33 797.18,1704.60 798.15,1705.67" />
	</edge>
	<edge id=":156_3" function="internal">
		<lane id=":156_3_0" index="0" disallow="tram rail_urban rail rail_electric rail_fast ship" speed="13.89" length="14.40" shape="796.02,1691.43 798.15,1705.67" />
	</edge>
	<edge id=":156_4" function="internal">
		<lane id=":156_4_0" index="0" disallow="tram rail_urban rail rail_electric rail_fast ship" speed="8.00" length="4.07" shape="796.02,1691.43 796.04,1695.32 795.98,1695.49" />
	</edge>
	<edge id=":156_5" function="internal">
		<lane id=":156_5_0" index="0" disallow="tram rail_urban rail rail_electric rail_fast ship" speed="3.65" length="1.44" shape="796.02,1691.43 795.40,1692.74" />
	</edge>
	<edge id=":156_10" function="internal">
		<lane id=":156_10_0" index="0" disallow="tram rail_urban rail rail_electric rail_fast ship" speed="8.00" length="10.13" shape="795.98,1695.49 794.82,1698.29 792.34,1700.32 788.62,1701.44" />
	</edge>
	<edge id=":156_11" function="internal">
		<lane id=":156_11_0" index="0" disallow="tram rail_urban rail rail_electric rail_fast ship" speed="3.65" length="3.23" shape="795.40,1692.74 794.67,1693.25 793.82,1692.97 792.85,1691.91" />
	</edge>
	<edge id=":156_6" function="internal">
		<lane id=":156_6_0" index="0" disallow="tram rail_urban rail rail_electric rail_fast ship" speed="6.51" length="9.03" shape="788.14,1698.27 790.51,1697.56 792.09,1696.27 792.87,1694.38 792.85,1691.91" />
	</edge>
	<edge id=":156_7" function="internal">
		<lane id=":156_7_0" index="0" disallow="tram rail_urban rail rail_electric rail_fast ship" speed="8.00" length="14.19" shape="788.14,1698.27 792.03,1698.25 795.00,1699.47 797.03,1701.95 798.15,1705.67" />
	</edge>
	<edge id=":156_8" function="internal">
		<lane id=":156_8_0" index="0" disallow="tram rail_urban rail rail_electric rail_fast ship" speed="3.65" length="4.67" shape="788.14,1698.27 789.45,1698.89 789.96,1699.62 789.68,1700.47 788.62,1701.44" />
	</edge>
	<edge id=":157_0" function="internal">
		<lane id=":157_0_0" index="0" disallow="tram rail_urban rail rail_electric rail_fast ship" speed="13.89" length="11.20" shape="394.23,1329.52 392.82,1318.41" />
	</edge>
	<edge id=":157_1" function="internal">
		<lane id=":157_1_0" index="0" disallow="tram rail_urban rail rail_electric rail_fast ship" speed="7.35" length="2.50" shape="394.23,1329.52 394.47,1327.03" />
	</edge>
	<edge id=":157_2" function="internal">
		<lane id=":157_2_0" index="0" disallow="tram rail_urban rail rail_electric rail_fast ship" speed="3.65" length="1.44" shape="394.23,1329.52 394.87,1328.23" />
	</edge>
	<edge id=":157_6" function="internal">
		<lane id=":157_6_0" index="0" disallow="tram rail_urban rail rail_electric rail_fast ship" speed="7.35" length="9.24" shape="394.47,1327.03 395.89,1325.09 398.49,1323.68 402.27,1322.82" />
	</edge>
	<edge id=":157_7" function="internal">
		<lane id=":157_7_0" index="0" disallow="tram rail_urban rail rail_electric rail_fast ship" speed="3.65" length="3.23" shape="394.87,1328.23 395.62,1327.73 396.46,1328.03 397.41,1329.12" />
	</edge>
	<edge id=":157_3" function="internal">
		<lane id=":157_3_0" index="0" disallow="tram rail_urban rail rail_electric rail_fast ship" speed="6.49" length="9.03" shape="396.00,1318.01 396.65,1320.40 397.92,1322.00 399.79,1322.80 402.27,1322.82" />
	</edge>
	<edge id=":157_4" function="internal">
		<lane id=":157_4_0" index="0" disallow="tram rail_urban rail rail_electric rail_fast ship" speed="13.89" length="11.20" shape="396.00,1318.01 397.41,1329.12" />
	</edge>
	<edge id=":157_5" function="internal">
		<lane id=":157_5_0" index="0" disallow="tram rail_urban rail rail_electric rail_fast ship" speed="3.65" length="1.44" shape="396.00,1318.01 395.35,1319.30" />
	</edge>
	<edge id=":157_8" function="internal">
		<lane id=":157_8_0" index="0" disallow="tram rail_urban rail rail_electric rail_fast ship" speed="3.65" length="3.23" shape="395.35,1319.30 394.61,1319.80 393.77,1319.50 392.82,1318.41" />
	</edge>
	<edge id=":158_0" function="internal">
		<lane id=":158_0_0" index="0" disallow="tram rail_urban rail rail_electric rail_fast ship" speed="13.89" length="0.10" shape="200.15,1454.86 200.15,1454.86" />
	</edge>
	<edge id=":160_0" function="internal">
		<lane id=":160_0_0" index="0" disallow="tram rail_urban rail rail_electric rail_fast ship" speed="13.89" length="14.30" shape="849.34,1160.55 835.18,1162.60" />
	</edge>
	<edge id=":160_1" function="internal">
		<lane id=":160_1_0" index="0" disallow="tram rail_urban rail rail_electric rail_fast ship" speed="8.07" length="3.96" shape="849.34,1160.55 845.49,1160.51 845.39,1160.47" />
	</edge>
	<edge id=":160_2" function="internal">
		<lane id=":160_2_0" index="0" disallow="tram rail_urban rail rail_electric rail_fast ship" speed="3.65" length="1.44" shape="849.34,1160.55 848.04,1159.91" />
	</edge>
	<edge id=":160_9" function="internal">
		<lane id=":160_9_0" index="0" disallow="tram rail_urban rail rail_electric rail_fast ship" speed="8.07" length="10.22" shape="845.39,1160.47 842.54,1159.25 840.49,1156.76 839.34,1153.04" />
	</edge>
	<edge id=":160_10" function="internal">
		<lane id=":160_10_0" index="0" disallow="tram rail_urban rail rail_electric rail_fast ship" speed="3.65" length="3.23" shape="848.04,1159.91 847.54,1159.17 847.83,1158.33 848.91,1157.38" />
	</edge>
	<edge id=":160_3" function="internal">
		<lane id=":160_3_0" index="0" disallow="tram rail_urban rail rail_electric rail_fast ship" speed="6.59" length="9.11" shape="842.50,1152.53 843.24,1154.93 844.55,1156.53 846.44,1157.35 848.91,1157.38" />
	</edge>
	<edge id=":160_4" function="internal">
		<lane id=":160_4_0" index="0" disallow="tram rail_urban rail rail_electric rail_fast ship" speed="7.99" length="14.22" shape="842.50,1152.53 842.57,1156.43 841.37,1159.40 838.91,1161.46 835.18,1162.60" />
	</edge>
	<edge id=":160_5" function="internal">
		<lane id=":160_5_0" index="0" disallow="tram rail_urban rail rail_electric rail_fast ship" speed="3.65" length="4.67" shape="842.50,1152.53 841.90,1153.84 841.18,1154.36 840.32,1154.09 839.34,1153.04" />
	</edge>
	<edge id=":160_6" function="internal">
		<lane id=":160_6_0" index="0" disallow="tram rail_urban rail rail_electric rail_fast ship" speed="6.49" length="9.03" shape="834.69,1159.43 837.06,1158.71 838.63,1157.40 839.39,1155.51 839.34,1153.04" />
	</edge>
	<edge id=":160_7" function="internal">
		<lane id=":160_7_0" index="0" disallow="tram rail_urban rail rail_electric rail_fast ship" speed="13.89" length="14.37" shape="834.69,1159.43 848.91,1157.38" />
	</edge>
	<edge id=":160_8" function="internal">
		<lane id=":160_8_0" index="0" disallow="tram rail_urban rail rail_electric rail_fast ship" speed="3.65" length="1.44" shape="834.69,1159.43 836.00,1160.04" />
	</edge>
	<edge id=":160_11" function="internal">
		<lane id=":160_11_0" index="0" disallow="tram rail_urban rail rail_electric rail_fast ship" speed="3.65" length="3.23" shape="836.00,1160.04 836.52,1160.77 836.24,1161.62 835.18,1162.60" />
	</edge>
	<edge id=":161_0" function="internal">
		<lane id=":161_0_0" index="0" disallow="tram rail_urban rail rail_electric rail_fast ship" speed="13.89" length="14.46" shape="726.81,1244.62 724.60,1230.33" />
	</edge>
	<edge id=":161_1" function="internal">
		<lane id=":161_1_0" index="0" disallow="tram rail_urban rail rail_electric rail_fast ship" speed="7.94" length="4.14" shape="726.81,1244.62 726.74,1240.68 726.82,1240.49" />
	</edge>
	<edge id=":161_2" function="internal">