<?xml version='1.0' encoding='utf-8'?>
<routes>
	<vType accel="3.0" decel="6.0" id="CarDefault" length="5.0" minGap="2.5" maxSpeed="50.0" sigma="0.5" />
	<route id="sr14140" edges="288 287 739 415 233 886 774 502 892 893 503 13 229 972 479 480 922 712 487 711 254 386 390 389 388 822" fromJunction="241" toJunction="316" />
	<route id="sr14141" edges="226 225 224 432 317 115 1029 444 443 506 507 508 509 510 892 893 503 740 1009 505 962 963 401" fromJunction="87" toJunction="358" />
	<route id="sr14142" edges="488 975 976 743 744 745 741 742 430 210 12 11 341 627 628 967 968 957 958 511 512 513 890 891 766 1018 1019 1020 1021 1022 898 961 1017 960 706" fromJunction="357" toJunction="248" />
	<vehicle id="v5656" depart="0.0" route="sr14140" type="CarDefault" departLane="random" />
	<vehicle id="v7023" depart="0.0" route="sr14141" type="CarDefault" departLane="random" />
	<vehicle id="v8391" depart="0.0" route="sr14142" type="CarDefault" departLane="random" />
	<vehicle id="v5657" depart="5.26" route="sr14140" type="CarDefault" departLane="random" />
	<vehicle id="v7024" depart="5.26" route="sr14141" type="CarDefault" departLane="random" />
	<vehicle id="v8392" depart="5.26" route="sr14142" type="CarDefault" departLane="random" />
	<vehicle id="v5658" depart="10.53" route="sr14140" type="CarDefault" departLane="random" />
	<vehicle id="v7025" depart="10.53" route="sr14141" type="CarDefault" departLane="random" />
	<vehicle id="v8393" depart="10.53" route="sr14142" type="CarDefault" departLane="random" />
	<vehicle id="v5659" depart="15.79" route="sr14140" type="CarDefault" departLane="random" />
	<vehicle id="v7026" depart="15.79" route="sr14141" type="CarDefault" departLane="random" />
	<vehicle id="v8394" depart="15.79" route="sr14142" type="CarDefault" departLane="random" />
	<vehicle id="v5660" depart="21.05" route="sr14140" type="CarDefault" departLane="random" />
	<vehicle id="v7027" depart="21.05" route="sr14141" type="CarDefault" departLane="random" />
	<vehicle id="v8395" depart="21.05" route="sr14142" type="CarDefault" departLane="random" />
	<vehicle id="v5661" depart="26.32" route="sr14140" type="CarDefault" departLane="random" />
	<vehicle id="v7028" depart="26.32" route="sr14141" type="CarDefault" departLane="random" />
	<vehicle id="v8396" depart="26.32" route="sr14142" type="CarDefault" departLane="random" />
	<vehicle id="v5662" depart="31.58" route="sr14140" type="CarDefault" departLane="random" />
	<vehicle id="v7029" depart="31.58" route="sr14141" type="CarDefault" departLane="random" />
	<vehicle id="v8397" depart="31.58" route="sr14142" type="CarDefault" departLane="random" />
	<vehicle id="v5663" depart="36.84" route="sr14140" type="CarDefault" departLane="random" />
	<vehicle id="v7030" depart="36.84" route="sr14141" type="CarDefault" departLane="random" />
	<vehicle id="v8398" depart="36.84" route="sr14142" type="CarDefault" departLane="random" />
	<vehicle id="v5664" depart="42.11" route="sr14140" type="CarDefault" departLane="random" />
	<vehicle id="v7031" depart="42.11" route="sr14141" type="CarDefault" departLane="random" />
	<vehicle id="v8399" depart="42.11" route="sr14142" type="CarDefault" departLane="random" />
	<vehicle id="v5665" depart="47.37" route="sr14140" type="CarDefault" departLane="random" />
	<vehicle id="v7032" depart="47.37" route="sr14141" type="CarDefault" departLane="random" />
	<vehicle id="v8400" depart="47.37" route="sr14142" type="CarDefault" departLane="random" />
	<vehicle id="v5666" depart="52.63" route="sr14140" type="CarDefault" departLane="random" />
	<vehicle id="v7033" depart="52.63" route="sr14141" type="CarDefault" departLane="random" />
	<vehicle id="v8401" depart="52.63" route="sr14142" type="CarDefault" departLane="random" />
	<vehicle id="v5667" depart="57.89" route="sr14140" type="CarDefault" departLane="random" />
	<vehicle id="v7034" depart="57.89" route="sr14141" type="CarDefault" departLane="random" />
	<vehicle id="v8402" depart="57.89" route="sr14142" type="CarDefault" departLane="random" />
	<vehicle id="v5668" depart="63.16" route="sr14140" type="CarDefault" departLane="random" />
	<vehicle id="v7035" depart="63.16" route="sr14141" type="CarDefault" departLane="random" />
	<vehicle id="v8403" depart="63.16" route="sr14142" type="CarDefault" departLane="random" />
	<vehicle id="v5669" depart="68.42" route="sr14140" type="CarDefault" departLane="random" />
	<vehicle id="v7036" depart="68.42" route="sr14141" type="CarDefault" departLane="random" />
	<vehicle id="v8404" depart="68.42" route="sr14142" type="CarDefault" departLane="random" />
	<vehicle id="v5670" depart="73.68" route="sr14140" type="CarDefault" departLane="random" />
	<vehicle id="v7037" depart="73.68" route="sr14141" type="CarDefault" departLane="random" />
	<vehicle id="v8405" depart="73.68" route="sr14142" type="CarDefault" departLane="random" />
	<vehicle id="v5671" depart="78.95" route="sr14140" type="CarDefault" departLane="random" />
	<vehicle id="v7038" depart="78.95" route="sr14141" type="CarDefault" departLane="random" />
	<vehicle id="v8406" depart="78.95" route="sr14142" type="CarDefault" departLane="random" />
	<vehicle id="v5672" depart="84.21" route="sr14140" type="CarDefault" departLane="random" />
	<vehicle id="v7039" depart="84.21" route="sr14141" type="CarDefault" departLane="random" />
	<vehicle id="v8407" depart="84.21" route="sr14142" type="CarDefault" departLane="random" />
	<vehicle id="v5673" depart="89.47" route="sr14140" type="CarDefault" departLane="random" />
	<vehicle id="v7040" depart="89.47" route="sr14141" type="CarDefault" departLane="random" />
	<vehicle id="v8408" depart="89.47" route="sr14142" type="CarDefault" departLane="random" />
	<vehicle id="v5674" depart="94.74" route="sr14140" type="CarDefault" departLane="random" />
	<vehicle id="v7041" depart="94.74" route="sr14141" type="CarDefault" departLane="random" />
	<vehicle id="v8409" depart="94.74" route="sr14142" type="CarDefault" departLane="random" />
	<vehicle id="v5675" depart="100.0" route="sr14140" type="CarDefault" departLane="random" />
	<vehicle id="v7042" depart="100.0" route="sr14141" type="CarDefault" departLane="random" />
	<vehicle id="v8410" depart="100.0" route="sr14142" type="CarDefault" departLane="random" />
	<vehicle id="v5676" depart="105.26" route="sr14140" type="CarDefault" departLane="random" />
	<vehicle id="v7043" depart="105.26" route="sr14141" type="CarDefault" departLane="random" />
	<vehicle id="v8411" depart="105.26" route="sr14142" type="CarDefault" departLane="random" />
	<vehicle id="v5677" depart="110.53" route="sr14140" type="CarDefault" departLane="random" />
	<vehicle id="v7044" depart="110.53" route="sr14141" type="CarDefault" departLane="random" />
	<vehicle id="v8412" depart="110.53" route="sr14142" type="CarDefault" departLane="random" />
	<vehicle id="v5678" depart="115.79" route="sr14140" type="CarDefault" departLane="random" />
	<vehicle id="v7045" depart="115.79" route="sr14141" type="CarDefault" departLane="random" />
	<vehicle id="v8413" depart="115.79" route="sr14142" type="CarDefault" departLane="random" />
	<vehicle id="v5679" depart="121.05" route="sr14140" type="CarDefault" departLane="random" />
	<vehicle id="v7046" depart="121.05" route="sr14141" type="CarDefault" departLane="random" />
	<vehicle id="v8414" depart="121.05" route="sr14142" type="CarDefault" departLane="random" />
	<vehicle id="v5680" depart="126.32" route="sr14140" type="CarDefault" departLane="random" />
	<vehicle id="v7047" depart="126.32" route="sr14141" type="CarDefault" departLane="random" />
	<vehicle id="v8415" depart="126.32" route="sr14142" type="CarDefault" departLane="random" />
	<vehicle id="v5681" depart="131.58" route="sr14140" type="CarDefault" departLane="random" />
	<vehicle id="v7048" depart="131.58" route="sr14141" type="CarDefault" departLane="random" />
	<vehicle id="v8416" depart="131.58" route="sr14142" type="CarDefault" departLane="random" />
	<vehicle id="v5682" depart="136.84" route="sr14140" type="CarDefault" departLane="random" />
	<vehicle id="v7049" depart="136.84" route="sr14141" type="CarDefault" departLane="random" />
	<vehicle id="v8417" depart="136.84" route="sr14142" type="CarDefault" departLane="random" />
	<vehicle id="v5683" depart="142.11" route="sr14140" type="CarDefault" departLane="random" />
	<vehicle id="v7050" depart="142.11" route="sr14141" type="CarDefault" departLane="random" />
	<vehicle id="v8418" depart="142.11" route="sr14142" type="CarDefault" departLane="random" />
	<vehicle id="v5684" depart="147.37" route="sr14140" type="CarDefault" departLane="random" />
	<vehicle id="v7051" depart="147.37" route="sr14141" type="CarDefault" departLane="random" />
	<vehicle id="v8419" depart="147.37" route="sr14142" type="CarDefault" departLane="random" />
	<vehicle id="v5685" depart="152.63" route="sr14140" type="CarDefault" departLane="random" />
	<vehicle id="v7052" depart="152.63" route="sr14141" type="CarDefault" departLane="random" />
	<vehicle id="v8420" depart="152.63" route="sr14142" type="CarDefault" departLane="random" />
	<vehicle id="v5686" depart="157.89" route="sr14140" type="CarDefault" departLane="random" />
	<vehicle id="v7053" depart="157.89" route="sr14141" type="CarDefault" departLane="random" />
	<vehicle id="v8421" depart="157.89" route="sr14142" type="CarDefault" departLane="random" />
	<vehicle id="v5687" depart="163.16" route="sr14140" type="CarDefault" departLane="random" />
	<vehicle id="v7054" depart="163.16" route="sr14141" type="CarDefault" departLane="random" />
	<vehicle id="v8422" depart="163.16" route="sr14142" type="CarDefault" departLane="random" />
	<vehicle id="v5688" depart="168.42" route="sr14140" type="CarDefault" departLane="random" />
	<vehicle id="v7055" depart="168.42" route="sr14141" type="CarDefault" departLane="random" />
	<vehicle id="v8423" depart="168.42" route="sr14142" type="CarDefault" departLane="random" />
	<vehicle id="v5689" depart="173.68" route="sr14140" type="CarDefault" departLane="random" />
	<vehicle id="v7056" depart="173.68" route="sr14141" type="CarDefault" departLane="random" />
	<vehicle id="v8424" depart="173.68" route="sr14142" type="CarDefault" departLane="random" />
	<vehicle id="v5690" depart="178.95" route="sr14140" type="CarDefault" departLane="random" />
	<vehicle id="v7057" depart="178.95" route="sr14141" type="CarDefault" departLane="random" />
	<vehicle id="v8425" depart="178.95" route="sr14142" type="CarDefault" departLane="random" />
	<vehicle id="v5691" depart="184.21" route="sr14140" type="CarDefault" departLane="random" />
	<vehicle id="v7058" depart="184.21" route="sr14141" type="CarDefault" departLane="random" />
	<vehicle id="v8426" depart="184.21" route="sr14142" type="CarDefault" departLane="random" />
	<vehicle id="v5692" depart="189.47" route="sr14140" type="CarDefault" departLane="random" />
	<vehicle id="v7059" depart="189.47" route="sr14141" type="CarDefault" departLane="random" />
	<vehicle id="v8427" depart="189.47" route="sr14142" type="CarDefault" departLane="random" />
	<vehicle id="v5693" depart="194.74" route="sr14140" type="CarDefault" departLane="random" />
	<vehicle id="v7060" depart="194.74" route="sr14141" type="CarDefault" departLane="random" />
	<vehicle id="v8428" depart="194.74" route="sr14142" type="CarDefault" departLane="random" />
	<vehicle id="v5694" depart="200.0" route="sr14140" type="CarDefault" departLane="random" />
	<vehicle id="v7061" depart="200.0" route="sr14141" type="CarDefault" departLane="random" />
	<vehicle id="v8429" depart="200.0" route="sr14142" type="CarDefault" departLane="random" />
	<vehicle id="v5695" depart="205.26" route="sr14140" type="CarDefault" departLane="random" />
	<vehicle id="v7062" depart="205.26" route="sr14141" type="CarDefault" departLane="random" />
	<vehicle id="v8430" depart="205.26" route="sr14142" type="CarDefault" departLane="random" />
	<vehicle id="v5696" depart="210.53" route="sr14140" type="CarDefault" departLane="random" />
	<vehicle id="v7063" depart="210.53" route="sr14141" type="CarDefault" departLane="random" />
	<vehicle id="v8431" depart="210.53" route="sr14142" type="CarDefault" departLane="random" />
	<vehicle id="v5697" depart="215.79" route="sr14140" type="CarDefault" departLane="random" />
	<vehicle id="v7064" depart="215.79" route="sr14141" type="CarDefault" departLane="random" />
	<vehicle id="v8432" depart="215.79" route="sr14142" type="CarDefault" departLane="random" />
	<vehicle id="v5698" depart="221.05" route="sr14140" type="CarDefault" departLane="random" />
	<vehicle id="v7065" depart="221.05" route="sr14141" type="CarDefault" departLane="random" />
	<vehicle id="v8433" depart="221.05" route="sr14142" type="CarDefault" departLane="random" />
	<vehicle id="v5699" depart="226.32" route="sr14140" type="CarDefault" departLane="random" />
	<vehicle id="v7066" depart="226.32" route="sr14141" type="CarDefault" departLane="random" />
	<vehicle id="v8434" depart="226.32" route="sr14142" type="CarDefault" departLane="random" />
	<vehicle id="v5700" depart="231.58" route="sr14140" type="CarDefault" departLane="random" />
	<vehicle id="v7067" depart="231.58" route="sr14141" type="CarDefault" departLane="random" />
	<vehicle id="v8435" depart="231.58" route="sr14142" type="CarDefault" departLane="random" />
	<vehicle id="v5701" depart="236.84" route="sr14140" type="CarDefault" departLane="random" />
	<vehicle id="v7068" depart="236.84" route="sr14141" type="CarDefault" departLane="random" />
	<vehicle id="v8436" depart="236.84" route="sr14142" type="CarDefault" departLane="random" />
	<vehicle id="v5702" depart="242.11" route="sr14140" type="CarDefault" departLane="random" />
	<vehicle id="v7069" depart="242.11" route="sr14141" type="CarDefault" departLane="random" />
	<vehicle id="v8437" depart="242.11" route="sr14142" type="CarDefault" departLane="random" />
	<vehicle id="v5703" depart="247.37" route="sr14140" type="CarDefault" departLane="random" />
	<vehicle id="v7070" depart="247.37" route="sr14141" type="CarDefault" departLane="random" />
	<vehicle id="v8438" depart="247.37" route="sr14142" type="CarDefault" departLane="random" />
	<vehicle id="v5704" depart="252.63" route="sr14140" type="CarDefault" departLane="random" />
	<vehicle id="v7071" depart="252.63" route="sr14141" type="CarDefault" departLane="random" />
	<vehicle id="v8439" depart="252.63" route="sr14142" type="CarDefault" departLane="random" />
	<vehicle id="v5705" depart="257.89" route="sr14140" type="CarDefault" departLane="random" />
	<vehicle id="v7072" depart="257.89" route="sr14141" type="CarDefault" departLane="random" />
	<vehicle id="v8440" depart="257.89" route="sr14142" type="CarDefault" departLane="random" />
	<vehicle id="v5706" depart="263.16" route="sr14140" type="CarDefault" departLane="random" />
	<vehicle id="v7073" depart="263.16" route="sr14141" type="CarDefault" departLane="random" />
	<vehicle id="v8441" depart="263.16" route="sr14142" type="CarDefault" departLane="random" />
	<vehicle id="v5707" depart="268.42" route="sr14140" type="CarDefault" departLane="random" />
	<vehicle id="v7074" depart="268.42" route="sr14141" type="CarDefault" departLane="random" />
	<vehicle id="v8442" depart="268.42" route="sr14142" type="CarDefault" departLane="random" />
	<vehicle id="v5708" depart="273.68" route="sr14140" type="CarDefault" departLane="random" />
	<vehicle id="v7075" depart="273.68" route="sr14141" type="CarDefault" departLane="random" />
	<vehicle id="v8443" depart="273.68" route="sr14142" type="CarDefault" departLane="random" />
	<vehicle id="v5709" depart="278.95" route="sr14140" type="CarDefault" departLane="random" />
	<vehicle id="v7076" depart="278.95" route="sr14141" type="CarDefault" departLane="random" />
	<vehicle id="v8444" depart="278.95" route="sr14142" type="CarDefault" departLane="random" />
	<vehicle id="v5710" depart="284.21" route="sr14140" type="CarDefault" departLane="random" />
	<vehicle id="v7077" depart="284.21" route="sr14141" type="CarDefault" departLane="random" />
	<vehicle id="v8445" depart="284.21" route="sr14142" type="CarDefault" departLane="random" />
	<vehicle id="v5711" depart="289.47" route="sr14140" type="CarDefault" departLane="random" />
	<vehicle id="v7078" depart="289.47" route="sr14141" type="CarDefault" departLane="random" />
	<vehicle id="v8446" depart="289.47" route="sr14142" type="CarDefault" departLane="random" />
	<vehicle id="v5712" depart="294.74" route="sr14140" type="CarDefault" departLane="random" />
	<vehicle id="v7079" depart="294.74" route="sr14141" type="CarDefault" departLane="random" />
	<vehicle id="v8447" depart="294.74" route="sr14142" type="CarDefault" departLane="random" />
	<vehicle id="v5713" depart="300.0" route="sr14140" type="CarDefault" departLane="random" />
	<vehicle id="v7080" depart="300.0" route="sr14141" type="CarDefault" departLane="random" />
	<vehicle id="v8448" depart="300.0" route="sr14142" type="CarDefault" departLane="random" />
	<vehicle id="v5714" depart="305.26" route="sr14140" type="CarDefault" departLane="random" />
	<vehicle id="v7081" depart="305.26" route="sr14141" type="CarDefault" departLane="random" />
	<vehicle id="v8449" depart="305.26" route="sr14142" type="CarDefault" departLane="random" />
	<vehicle id="v5715" depart="310.53" route="sr14140" type="CarDefault" departLane="random" />
	<vehicle id="v7082" depart="310.53" route="sr14141" type="CarDefault" departLane="random" />
	<vehicle id="v8450" depart="310.53" route="sr14142" type="CarDefault" departLane="random" />
	<vehicle id="v5716" depart="315.79" route="sr14140" type="CarDefault" departLane="random" />
	<vehicle id="v7083" depart="315.79" route="sr14141" type="CarDefault" departLane="random" />
	<vehicle id="v8451" depart="315.79" route="sr14142" type="CarDefault" departLane="random" />
	<vehicle id="v5717" depart="321.05" route="sr14140" type="CarDefault" departLane="random" />
	<vehicle id="v7084" depart="321.05" route="sr14141" type="CarDefault" departLane="random" />
	<vehicle id="v8452" depart="321.05" route="sr14142" type="CarDefault" departLane="random" />
	<vehicle id="v5718" depart="326.32" route="sr14140" type="CarDefault" departLane="random" />
	<vehicle id="v7085" depart="326.32" route="sr14141" type="CarDefault" departLane="random" />
	<vehicle id="v8453" depart="326.32" route="sr14142" type="CarDefault" departLane="random" />
	<vehicle id="v5719" depart="331.58" route="sr14140" type="CarDefault" departLane="random" />
	<vehicle id="v7086" depart="331.58" route="sr14141" type="CarDefault" departLane="random" />
	<vehicle id="v8454" depart="331.58" route="sr14142" type="CarDefault" departLane="random" />
	<vehicle id="v5720" depart="336.84" route="sr14140" type="CarDefault" departLane="random" />
	<vehicle id="v7087" depart="336.84" route="sr14141" type="CarDefault" departLane="random" />
	<vehicle id="v8455" depart="336.84" route="sr14142" type="CarDefault" departLane="random" />
	<vehicle id="v5721" depart="342.11" route="sr14140" type="CarDefault" departLane="random" />
	<vehicle id="v7088" depart="342.11" route="sr14141" type="CarDefault" departLane="random" />
	<vehicle id="v8456" depart="342.11" route="sr14142" type="CarDefault" departLane="random" />
	<vehicle id="v5722" depart="347.37" route="sr14140" type="CarDefault" departLane="random" />
	<vehicle id="v7089" depart="347.37" route="sr14141" type="CarDefault" departLane="random" />
	<vehicle id="v8457" depart="347.37" route="sr14142" type="CarDefault" departLane="random" />
	<vehicle id="v5723" depart="352.63" route="sr14140" type="CarDefault" departLane="random" />
	<vehicle id="v7090" depart="352.63" route="sr14141" type="CarDefault" departLane="random" />
	<vehicle id="v8458" depart="352.63" route="sr14142" type="CarDefault" departLane="random" />
	<vehicle id="v5724" depart="357.89" route="sr14140" type="CarDefault" departLane="random" />
	<vehicle id="v7091" depart="357.89" route="sr14141" type="CarDefault" departLane="random" />
	<vehicle id="v8459" depart="357.89" route="sr14142" type="CarDefault" departLane="random" />
	<vehicle id="v5725" depart="363.16" route="sr14140" type="CarDefault" departLane="random" />
	<vehicle id="v7092" depart="363.16" route="sr14141" type="CarDefault" departLane="random" />
	<vehicle id="v8460" depart="363.16" route="sr14142" type="CarDefault" departLane="random" />
	<vehicle id="v5726" depart="368.42" route="sr14140" type="CarDefault" departLane="random" />
	<vehicle id="v7093" depart="368.42" route="sr14141" type="CarDefault" departLane="random" />
	<vehicle id="v8461" depart="368.42" route="sr14142" type="CarDefault" departLane="random" />
	<vehicle id="v5727" depart="373.68" route="sr14140" type="CarDefault" departLane="random" />
	<vehicle id="v7094" depart="373.68" route="sr14141" type="CarDefault" departLane="random" />
	<vehicle id="v8462" depart="373.68" route="sr14142" type="CarDefault" departLane="random" />
	<vehicle id="v5728" depart="378.95" route="sr14140" type="CarDefault" departLane="random" />
	<vehicle id="v7095" depart="378.95" route="sr14141" type="CarDefault" departLane="random" />
	<vehicle id="v8463" depart="378.95" route="sr14142" type="CarDefault" departLane="random" />
	<vehicle id="v5729" depart="384.21" route="sr14140" type="CarDefault" departLane="random" />
	<vehicle id="v7096" depart="384.21" route="sr14141" type="CarDefault" departLane="random" />
	<vehicle id="v8464" depart="384.21" route="sr14142" type="CarDefault" departLane="random" />
	<vehicle id="v5730" depart="389.47" route="sr14140" type="CarDefault" departLane="random" />
	<vehicle id="v7097" depart="389.47" route="sr14141" type="CarDefault" departLane="random" />
	<vehicle id="v8465" depart="389.47" route="sr14142" type="CarDefault" departLane="random" />
	<vehicle id="v5731" depart="394.74" route="sr14140" type="CarDefault" departLane="random" />
	<vehicle id="v7098" depart="394.74" route="sr14141" type="CarDefault" departLane="random" />
	<vehicle id="v8466" depart="394.74" route="sr14142" type="CarDefault" departLane="random" />
	<vehicle id="v5732" depart="400.0" route="sr14140" type="CarDefault" departLane="random" />
	<vehicle id="v7099" depart="400.0" route="sr14141" type="CarDefault" departLane="random" />
	<vehicle id="v8467" depart="400.0" route="sr14142" type="CarDefault" departLane="random" />
	<vehicle id="v5733" depart="405.26" route="sr14140" type="CarDefault" departLane="random" />
	<vehicle id="v7100" depart="405.26" route="sr14141" type="CarDefault" departLane="random" />
	<vehicle id="v8468" depart="405.26" route="sr14142" type="CarDefault" departLane="random" />
	<vehicle id="v5734" depart="410.53" route="sr14140" type="CarDefault" departLane="random" />
	<vehicle id="v7101" depart="410.53" route="sr14141" type="CarDefault" departLane="random" />
	<vehicle id="v8469" depart="410.53" route="sr14142" type="CarDefault" departLane="random" />
	<vehicle id="v5735" depart="415.79" route="sr14140" type="CarDefault" departLane="random" />
	<vehicle id="v7102" depart="415.79" route="sr14141" type="CarDefault" departLane="random" />
	<vehicle id="v8470" depart="415.79" route="sr14142" type="CarDefault" departLane="random" />
	<vehicle id="v5736" depart="421.05" route="sr14140" type="CarDefault" departLane="random" />
	<vehicle id="v7103" depart="421.05" route="sr14141" type="CarDefault" departLane="random" />
	<vehicle id="v8471" depart="421.05" route="sr14142" type="CarDefault" departLane="random" />
	<vehicle id="v5737" depart="426.32" route="sr14140" type="CarDefault" departLane="random" />
	<vehicle id="v7104" depart="426.32" route="sr14141" type="CarDefault" departLane="random" />
	<vehicle id="v8472" depart="426.32" route="sr14142" type="CarDefault" departLane="random" />
	<vehicle id="v5738" depart="431.58" route="sr14140" type="CarDefault" departLane="random" />
	<vehicle id="v7105" depart="431.58" route="sr14141" type="CarDefault" departLane="random" />
	<vehicle id="v8473" depart="431.58" route="sr14142" type="CarDefault" departLane="random" />
	<vehicle id="v5739" depart="436.84" route="sr14140" type="CarDefault" departLane="random" />
	<vehicle id="v7106" depart="436.84" route="sr14141" type="CarDefault" departLane="random" />
	<vehicle id="v8474" depart="436.84" route="sr14142" type="CarDefault" departLane="random" />
	<vehicle id="v5740" depart="442.11" route="sr14140" type="CarDefault" departLane="random" />
	<vehicle id="v7107" depart="442.11" route="sr14141" type="CarDefault" departLane="random" />
	<vehicle id="v8475" depart="442.11" route="sr14142" type="CarDefault" departLane="random" />
	<vehicle id="v5741" depart="447.37" route="sr14140" type="CarDefault" departLane="random" />
	<vehicle id="v7108" depart="447.37" route="sr14141" type="CarDefault" departLane="random" />
	<vehicle id="v8476" depart="447.37" route="sr14142" type="CarDefault" departLane="random" />
	<vehicle id="v5742" depart="452.63" route="sr14140" type="CarDefault" departLane="random" />
	<vehicle id="v7109" depart="452.63" route="sr14141" type="CarDefault" departLane="random" />
	<vehicle id="v8477" depart="452.63" route="sr14142" type="CarDefault" departLane="random" />
	<vehicle id="v5743" depart="457.89" route="sr14140" type="CarDefault" departLane="random" />
	<vehicle id="v7110" depart="457.89" route="sr14141" type="CarDefault" departLane="random" />
	<vehicle id="v8478" depart="457.89" route="sr14142" type="CarDefault" departLane="random" />
	<vehicle id="v5744" depart="463.16" route="sr14140" type="CarDefault" departLane="random" />
	<vehicle id="v7111" depart="463.16" route="sr14141" type="CarDefault" departLane="random" />
	<vehicle id="v8479" depart="463.16" route="sr14142" type="CarDefault" departLane="random" />
	<vehicle id="v5745" depart="468.42" route="sr14140" type="CarDefault" departLane="random" />
	<vehicle id="v7112" depart="468.42" route="sr14141" type="CarDefault" departLane="random" />
	<vehicle id="v8480" depart="468.42" route="sr14142" type="CarDefault" departLane="random" />
	<vehicle id="v5746" depart="473.68" route="sr14140" type="CarDefault" departLane="random" />
	<vehicle id="v7113" depart="473.68" route="sr14141" type="CarDefault" departLane="random" />
	<vehicle id="v8481" depart="473.68" route="sr14142" type="CarDefault" departLane="random" />
	<vehicle id="v5747" depart="478.95" route="sr14140" type="CarDefault" departLane="random" />
	<vehicle id="v7114" depart="478.95" route="sr14141" type="CarDefault" departLane="random" />
	<vehicle id="v8482" depart="478.95" route="sr14142" type="CarDefault" departLane="random" />
	<vehicle id="v5748" depart="484.21" route="sr14140" type="CarDefault" departLane="random" />
	<vehicle id="v7115" depart="484.21" route="sr14141" type="CarDefault" departLane="random" />
	<vehicle id="v8483" depart="484.21" route="sr14142" type="CarDefault" departLane="random" />
	<vehicle id="v5749" depart="489.47" route="sr14140" type="CarDefault" departLane="random" />
	<vehicle id="v7116" depart="489.47" route="sr14141" type="CarDefault" departLane="random" />
	<vehicle id="v8484" depart="489.47" route="sr14142" type="CarDefault" departLane="random" />
	<vehicle id="v5750" depart="494.74" route="sr14140" type="CarDefault" departLane="random" />
	<vehicle id="v7117" depart="494.74" route="sr14141" type="CarDefault" departLane="random" />
	<vehicle id="v8485" depart="494.74" route="sr14142" type="CarDefault" departLane="random" />
	<vehicle id="v5751" depart="500.0" route="sr14140" type="CarDefault" departLane="random" />
	<vehicle id="v7118" depart="500.0" route="sr14141" type="CarDefault" departLane="random" />
	<vehicle id="v8486" depart="500.0" route="sr14142" type="CarDefault" departLane="random" />
	<vehicle id="v5752" depart="505.26" route="sr14140" type="CarDefault" departLane="random" />
	<vehicle id="v7119" depart="505.26" route="sr14141" type="CarDefault" departLane="random" />
	<vehicle id="v8487" depart="505.26" route="sr14142" type="CarDefault" departLane="random" />
	<vehicle id="v5753" depart="510.53" route="sr14140" type="CarDefault" departLane="random" />
	<vehicle id="v7120" depart="510.53" route="sr14141" type="CarDefault" departLane="random" />
	<vehicle id="v8488" depart="510.53" route="sr14142" type="CarDefault" departLane="random" />
	<vehicle id="v5754" depart="515.79" route="sr14140" type="CarDefault" departLane="random" />
	<vehicle id="v7121" depart="515.79" route="sr14141" type="CarDefault" departLane="random" />
	<vehicle id="v8489" depart="515.79" route="sr14142" type="CarDefault" departLane="random" />
	<vehicle id="v5755" depart="521.05" route="sr14140" type="CarDefault" departLane="random" />
	<vehicle id="v7122" depart="521.05" route="sr14141" type="CarDefault" departLane="random" />
	<vehicle id="v8490" depart="521.05" route="sr14142" type="CarDefault" departLane="random" />
	<vehicle id="v5756" depart="526.32" route="sr14140" type="CarDefault" departLane="random" />
	<vehicle id="v7123" depart="526.32" route="sr14141" type="CarDefault" departLane="random" />
	<vehicle id="v8491" depart="526.32" route="sr14142" type="CarDefault" departLane="random" />
	<vehicle id="v5757" depart="531.58" route="sr14140" type="CarDefault" departLane="random" />
	<vehicle id="v7124" depart="531.58" route="sr14141" type="CarDefault" departLane="random" />
	<vehicle id="v8492" depart="531.58" route="sr14142" type="CarDefault" departLane="random" />
	<vehicle id="v5758" depart="536.84" route="sr14140" type="CarDefault" departLane="random" />
	<vehicle id="v7125" depart="536.84" route="sr14141" type="CarDefault" departLane="random" />
	<vehicle id="v8493" depart="536.84" route="sr14142" type="CarDefault" departLane="random" />
	<vehicle id="v5759" depart="542.11" route="sr14140" type="CarDefault" departLane="random" />
	<vehicle id="v7126" depart="542.11" route="sr14141" type="CarDefault" departLane="random" />
	<vehicle id="v8494" depart="542.11" route="sr14142" type="CarDefault" departLane="random" />