<?xml version='1.0' encoding='utf-8'?>
<net xmlns:xsi="http://www.w3.org/2001/XMLSchema-instance" version="1.9" junctionCornerDetail="5" limitTurnSpeed="5.50" xsi:noNamespaceSchemaLocation="http://sumo.dlr.de/xsd/net_file.xsd">
	<location netOffset="-700187.91,-5711400.31" convBoundary="0.00,276.88,1784.81,1641.90" origBoundary="-0.115477,51.518028,-0.086294,51.533349" projParameter="+proj=utm +zone=30 +ellps=WGS84 +datum=WGS84 +units=m +no_defs" />
	<subgraphs>
		<subgraph id="sg0" from_junction="227" to_junction="295" edges="482,360,609,376,556,410,599,416,578,563,150,594,559,577,499,154,337,496,27,470,84,495,342,398,322,494,612,86,394,474,608,571,173,250,396,425,506,489,593,493,550,249,407,635,114,548,633,424,414,535,96,430,601,542,440,510,315,245,408,565,642,561,167,359,583,501,597,406,28,145,244,129,292,377,487,308,552,507,286,514,310,375,444,525,478,553,345,343,629,380,293,589,233,176,473,411,284,443,336,340,622,541,85,492,341,97,155,483,147,481,471,31,131,484,268,348,88,570,472,564,610,26,156,7,439,132,234,395,500,358,549,497,611,567,572,29,621,600,560,584,555,146,515,30,149,591,269,442,168,562,323,294,295,596,285,566,446,130,87,309,25,554,588,379,61,486,511,595,232,346,592,545,166,598,67,626,438,546,441,385,329,347,361,512,152,283,151,551,429,475,159,339,391,62,171,148,291,338,509,172" />
		<subgraph id="sg1" from_junction="139" to_junction="73" edges="330,287,360,632,231,219,410,36,243,150,563,559,577,154,337,27,606,470,118,312,342,141,134,322,86,344,571,64,173,365,474,608,56,23,181,109,121,425,184,354,194,95,506,536,65,407,70,424,414,73,535,430,112,420,440,575,510,245,10,110,237,408,99,101,565,318,89,167,561,359,557,406,199,28,145,123,191,244,129,260,140,292,102,487,77,507,286,558,525,236,76,523,478,205,343,353,119,364,204,59,233,55,473,202,411,74,176,336,340,417,341,75,155,192,147,481,313,471,31,131,103,348,447,88,124,570,472,201,564,26,47,156,7,66,45,41,44,282,320,427,335,138,439,239,603,413,83,521,197,234,132,117,213,321,42,311,24,497,358,69,567,111,29,621,412,560,72,607,68,146,193,30,149,190,269,189,448,200,241,126,168,323,374,295,294,317,212,518,122,562,225,566,446,130,188,87,532,211,25,144,94,61,486,511,316,46,232,203,166,71,522,198,48,137,120,431,438,272,436,347,218,361,43,152,1,512,235,57,151,475,159,177,339,62,319,171,148,291,54,338,366,509,464,63" />
		<subgraph id="sg2" from_junction="226" to_junction="68" edges="369,350,196,287,632,231,219,36,243,150,594,577,154,337,27,118,312,342,322,141,344,86,365,173,608,56,276,23,121,506,354,184,194,70,9,73,449,112,315,510,245,10,110,237,101,604,318,89,167,58,199,605,602,145,123,28,191,244,509,579,260,38,102,487,77,507,286,543,236,76,205,478,523,353,364,204,119,343,59,233,55,284,202,473,74,451,336,340,341,75,155,192,147,481,31,463,348,103,447,450,88,472,201,26,47,156,7,45,41,44,320,427,335,239,603,83,521,197,234,117,321,132,213,42,311,24,497,69,195,580,111,29,8,72,607,68,146,193,30,190,189,269,448,200,149,126,544,168,323,374,212,317,518,122,285,225,530,188,164,87,25,144,511,486,61,581,316,46,232,203,166,71,522,252,48,198,120,272,347,218,43,512,152,1,235,57,151,306,159,177,62,54,319,148,582,366,452,283" />
	</subgraphs>
	<type id="highway.bridleway" priority="1" numLanes="1" speed="2.78" allow="pedestrian" oneway="1" width="2.00" />
	<type id="highway.bus_guideway" priority="1" numLanes="1" speed="27.78" allow="bus" oneway="1" />
	<type id="highway.cycleway" priority="1" numLanes="1" speed="8.33" allow="bicycle" oneway="1" width="1.00" />
	<type id="highway.footway" priority="1" numLanes="1" speed="2.78" allow="pedestrian" oneway="1" width="2.00" />
	<type id="highway.ford" priority="1" numLanes="1" speed="2.78" allow="army" oneway="1" />
	<type id="highway.living_street" priority="2" numLanes="1" speed="2.78" disallow="tram rail_urban rail rail_electric rail_fast ship" oneway="1" />
	<type id="highway.motorway" priority="14" numLanes="2" speed="39.44" allow="private emergency authority army vip passenger hov taxi bus coach delivery truck trailer motorcycle evehicle custom1 custom2" oneway="1" />
	<type id="highway.motorway_link" priority="9" numLanes="1" speed="22.22" allow="private emergency authority army vip passenger hov taxi bus coach delivery truck trailer motorcycle evehicle custom1 custom2" oneway="1" />
	<type id="highway.path" priority="1" numLanes="1" speed="2.78" allow="pedestrian bicycle" oneway="1" width="2.00" />
	<type id="highway.pedestrian" priority="1" numLanes="1" speed="2.78" allow="pedestrian" oneway="1" width="2.00" />
	<type id="highway.primary" priority="12" numLanes="2" speed="27.78" disallow="tram rail_urban rail rail_electric rail_fast ship" oneway="1" />
	<type id="highway.primary_link" priority="7" numLanes="1" speed="22.22" disallow="tram rail_urban rail rail_electric rail_fast ship" oneway="1" />
	<type id="highway.raceway" priority="15" numLanes="2" speed="83.33" allow="vip" oneway="1" />
	<type id="highway.residential" priority="3" numLanes="1" speed="13.89" disallow="tram rail_urban rail rail_electric rail_fast ship" oneway="1" />
	<type id="highway.secondary" priority="11" numLanes="1" speed="27.78" disallow="tram rail_urban rail rail_electric rail_fast ship" oneway="1" />
	<type id="highway.secondary_link" priority="6" numLanes="1" speed="22.22" disallow="tram rail_urban rail rail_electric rail_fast ship" oneway="1" />
	<type id="highway.service" priority="1" numLanes="1" speed="5.56" allow="pedestrian delivery bicycle" oneway="1" />
	<type id="highway.stairs" priority="1" numLanes="1" speed="1.39" allow="pedestrian" oneway="1" width="2.00" />
	<type id="highway.step" priority="1" numLanes="1" speed="1.39" allow="pedestrian" oneway="1" width="2.00" />
	<type id="highway.steps" priority="1" numLanes="1" speed="1.39" allow="pedestrian" oneway="1" width="2.00" />
	<type id="highway.tertiary" priority="10" numLanes="1" speed="22.22" disallow="tram rail_urban rail rail_electric rail_fast ship" oneway="1" />
	<type id="highway.tertiary_link" priority="5" numLanes="1" speed="22.22" disallow="tram rail_urban rail rail_electric rail_fast ship" oneway="1" />
	<type id="highway.track" priority="1" numLanes="1" speed="5.56" allow="pedestrian motorcycle moped bicycle" oneway="1" />
	<type id="highway.trunk" priority="13" numLanes="2" speed="27.78" disallow="pedestrian bicycle tram rail_urban rail rail_electric rail_fast ship" oneway="1" />
	<type id="highway.trunk_link" priority="8" numLanes="1" speed="22.22" disallow="pedestrian bicycle tram rail_urban rail rail_electric rail_fast ship" oneway="1" />
	<type id="highway.unclassified" priority="4" numLanes="1" speed="13.89" disallow="tram rail_urban rail rail_electric rail_fast ship" oneway="1" />
	<type id="highway.unsurfaced" priority="1" numLanes="1" speed="8.33" disallow="tram rail_urban rail rail_electric rail_fast ship" oneway="1" />
	<type id="railway.highspeed" priority="21" numLanes="1" speed="69.44" allow="rail_fast" oneway="1" />
	<type id="railway.light_rail" priority="19" numLanes="1" speed="27.78" allow="rail_urban" oneway="1" />
	<type id="railway.preserved" priority="16" numLanes="1" speed="27.78" allow="rail" oneway="1" />
	<type id="railway.rail" priority="20" numLanes="1" speed="44.44" allow="rail" oneway="1" />
	<type id="railway.subway" priority="18" numLanes="1" speed="27.78" allow="rail_urban" oneway="1" />
	<type id="railway.tram" priority="17" numLanes="1" speed="13.89" allow="tram" oneway="1" />
	<edge id=":0_0" function="internal">
		<lane id=":0_0_0" index="0" disallow="tram rail_urban rail rail_electric rail_fast ship" speed="8.94" length="0.23" shape="1131.06,1309.98 1131.00,1310.20" />
	</edge>
	<edge id=":0_1" function="internal">
		<lane id=":0_1_0" index="0" disallow="tram rail_urban rail rail_electric rail_fast ship" speed="8.94" length="0.31" shape="1127.91,1309.38 1127.99,1309.08" />
	</edge>
	<edge id=":1_0" function="internal">
		<lane id=":1_0_0" index="0" disallow="tram rail_urban rail rail_electric rail_fast ship" speed="7.17" length="8.03" shape="875.88,1225.26 875.42,1227.03 875.61,1228.82 876.45,1230.65 877.96,1232.50" />
	</edge>
	<edge id=":1_1" function="internal">
		<lane id=":1_1_0" index="0" disallow="tram rail_urban rail rail_electric rail_fast ship" speed="8.94" length="9.46" shape="875.88,1225.26 874.74,1227.82 873.91,1229.57 872.91,1231.20 871.24,1233.45" />
	</edge>
	<edge id=":1_2" function="internal">
		<lane id=":1_2_0" index="0" disallow="tram rail_urban rail rail_electric rail_fast ship" speed="3.65" length="1.44" shape="875.88,1225.26 874.66,1226.02" />
	</edge>
	<edge id=":1_6" function="internal">
		<lane id=":1_6_0" index="0" disallow="tram rail_urban rail rail_electric rail_fast ship" speed="3.65" length="3.23" shape="874.66,1226.02 873.76,1226.06 873.20,1225.36 872.97,1223.94" />
	</edge>
	<edge id=":1_3" function="internal">
		<lane id=":1_3_0" index="0" disallow="tram rail_urban rail rail_electric rail_fast ship" speed="8.94" length="8.71" shape="868.71,1231.49 870.24,1229.42 871.16,1227.91 871.92,1226.30 872.97,1223.94" />
	</edge>
	<edge id=":1_4" function="internal">
		<lane id=":1_4_0" index="0" disallow="tram rail_urban rail rail_electric rail_fast ship" speed="6.77" length="2.58" shape="868.71,1231.49 870.65,1229.79" />
	</edge>
	<edge id=":1_5" function="internal">
		<lane id=":1_5_0" index="0" disallow="tram rail_urban rail rail_electric rail_fast ship" speed="3.65" length="1.44" shape="868.71,1231.49 870.08,1231.03" />
	</edge>
	<edge id=":1_7" function="internal">
		<lane id=":1_7_0" index="0" disallow="tram rail_urban rail rail_electric rail_fast ship" speed="6.77" length="8.29" shape="870.65,1229.79 872.84,1229.39 875.27,1230.29 877.96,1232.50" />
	</edge>
	<edge id=":1_8" function="internal">
		<lane id=":1_8_0" index="0" disallow="tram rail_urban rail rail_electric rail_fast ship" speed="3.65" length="3.23" shape="870.08,1231.03 870.95,1231.21 871.34,1232.01 871.24,1233.45" />
	</edge>
	<edge id=":10_0" function="internal">
		<lane id=":10_0_0" index="0" disallow="bicycle tram rail_urban rail rail_electric rail_fast ship" speed="6.67" length="9.04" shape="1028.92,1378.61 1027.79,1376.39 1026.24,1375.01 1024.26,1374.46 1021.86,1374.75" />
	</edge>
	<edge id=":10_1" function="internal">
		<lane id=":10_1_0" index="0" disallow="bicycle tram rail_urban rail rail_electric rail_fast ship" speed="8.68" length="16.65" shape="1028.92,1378.61 1027.73,1373.52 1028.04,1369.47 1029.84,1366.45 1033.14,1364.47" />
	</edge>
	<edge id=":10_2" function="internal">
		<lane id=":10_2_0" index="0" disallow="tram rail_urban rail rail_electric rail_fast ship" speed="3.65" length="4.67" shape="1028.92,1378.61 1029.28,1377.22 1029.91,1376.58 1030.79,1376.70 1031.94,1377.57" />
	</edge>
	<edge id=":10_3" function="internal">
		<lane id=":10_3_0" index="0" disallow="bicycle tram rail_urban rail rail_electric rail_fast ship" speed="6.51" length="8.92" shape="1035.32,1370.48 1033.17,1371.63 1031.89,1373.19 1031.48,1375.17 1031.94,1377.57" />
	</edge>
	<edge id=":10_4" function="internal">
		<lane id=":10_4_0" index="0" disallow="bicycle tram rail_urban rail rail_electric rail_fast ship" speed="13.41" length="13.99" shape="1035.32,1370.48 1021.86,1374.75" />
		<lane id=":10_4_1" index="1" disallow="bicycle tram rail_urban rail rail_electric rail_fast ship" speed="13.41" length="13.99" shape="1034.23,1367.47 1021.02,1371.66" />
	</edge>
	<edge id=":10_6" function="internal">
		<lane id=":10_6_0" index="0" disallow="bicycle tram rail_urban rail rail_electric rail_fast ship" speed="3.65" length="1.44" shape="1034.23,1367.47 1032.83,1367.13" />
	</edge>
	<edge id=":10_11" function="internal">
		<lane id=":10_11_0" index="0" disallow="bicycle tram rail_urban rail rail_electric rail_fast ship" speed="3.65" length="3.23" shape="1032.83,1367.13 1032.18,1366.52 1032.28,1365.63 1033.14,1364.47" />
	</edge>
	<edge id=":10_7" function="internal">
		<lane id=":10_7_0" index="0" disallow="bicycle tram rail_urban rail rail_electric rail_fast ship" speed="13.41" length="13.45" shape="1019.36,1365.48 1032.05,1361.46" />
		<lane id=":10_7_1" index="1" disallow="bicycle tram rail_urban rail rail_electric rail_fast ship" speed="13.41" length="13.45" shape="1020.19,1368.57 1033.14,1364.47" />
	</edge>
	<edge id=":10_9" function="internal">
		<lane id=":10_9_0" index="0" disallow="bicycle tram rail_urban rail rail_electric rail_fast ship" speed="8.81" length="3.01" shape="1020.19,1368.57 1023.19,1368.38" />
	</edge>
	<edge id=":10_10" function="internal">
		<lane id=":10_10_0" index="0" disallow="bicycle tram rail_urban rail rail_electric rail_fast ship" speed="3.65" length="1.44" shape="1020.19,1368.57 1021.56,1369.03" />
	</edge>
	<edge id=":10_12" function="internal">
		<lane id=":10_12_0" index="0" disallow="bicycle tram rail_urban rail rail_electric rail_fast ship" speed="8.81" length="13.49" shape="1023.19,1368.38 1023.89,1368.33 1027.09,1369.75 1029.77,1372.83 1031.94,1377.57" />
	</edge>
	<edge id=":10_13" function="internal">
		<lane id=":10_13_0" index="0" disallow="bicycle tram rail_urban rail rail_electric rail_fast ship" speed="3.65" length="3.23" shape="1021.56,1369.03 1022.15,1369.70 1021.97,1370.58 1021.02,1371.66" />
	</edge>
	<edge id=":100_0" function="internal">
		<lane id=":100_0_0" index="0" disallow="tram rail_urban rail rail_electric rail_fast ship" speed="8.94" length="14.61" shape="925.92,1099.38 921.27,1113.22" />
	</edge>
	<edge id=":100_1" function="internal">
		<lane id=":100_1_0" index="0" disallow="tram rail_urban rail rail_electric rail_fast ship" speed="7.90" length="4.27" shape="925.92,1099.38 924.21,1102.97 923.98,1103.16" />
	</edge>
	<edge id=":100_2" function="internal">
		<lane id=":100_2_0" index="0" disallow="tram rail_urban rail rail_electric rail_fast ship" speed="3.65" length="1.44" shape="925.92,1099.38 924.80,1100.29" />
	</edge>
	<edge id=":100_9" function="internal">
		<lane id=":100_9_0" index="0" disallow="tram rail_urban rail rail_electric rail_fast ship" speed="7.90" length="10.14" shape="923.98,1103.16 921.76,1105.08 918.60,1105.70 914.71,1104.85" />
	</edge>
	<edge id=":100_10" function="internal">
		<lane id=":100_10_0" index="0" disallow="tram rail_urban rail rail_electric rail_fast ship" speed="3.65" length="3.23" shape="924.80,1100.29 923.92,1100.43 923.27,1099.81 922.87,1098.42" />
	</edge>
	<edge id=":100_3" function="internal">
		<lane id=":100_3_0" index="0" disallow="tram rail_urban rail rail_electric rail_fast ship" speed="6.39" length="9.04" shape="915.84,1101.85 918.28,1102.39 920.26,1102.00 921.79,1100.67 922.87,1098.42" />
	</edge>
	<edge id=":100_4" function="internal">
		<lane id=":100_4_0" index="0" disallow="tram rail_urban rail rail_electric rail_fast ship" speed="8.08" length="14.33" shape="915.84,1101.85 919.33,1103.75 921.39,1106.27 922.04,1109.43 921.27,1113.22" />
	</edge>
	<edge id=":100_5" function="internal">
		<lane id=":100_5_0" index="0" disallow="tram rail_urban rail rail_electric rail_fast ship" speed="3.65" length="4.67" shape="915.84,1101.85 916.68,1103.02 916.77,1103.91 916.12,1104.52 914.71,1104.85" />
	</edge>
	<edge id=":100_6" function="internal">
		<lane id=":100_6_0" index="0" disallow="tram rail_urban rail rail_electric rail_fast ship" speed="6.60" length="9.22" shape="918.26,1112.14 918.75,1109.72 918.32,1107.69 916.97,1106.07 914.71,1104.85" />
	</edge>
	<edge id=":100_7" function="internal">
		<lane id=":100_7_0" index="0" disallow="tram rail_urban rail rail_electric rail_fast ship" speed="8.94" length="14.47" shape="918.26,1112.14 922.87,1098.42" />
	</edge>
	<edge id=":100_8" function="internal">
		<lane id=":100_8_0" index="0" disallow="tram rail_urban rail rail_electric rail_fast ship" speed="3.65" length="1.44" shape="918.26,1112.14 919.42,1111.28" />
	</edge>
	<edge id=":100_11" function="internal">
		<lane id=":100_11_0" index="0" disallow="tram rail_urban rail rail_electric rail_fast ship" speed="3.65" length="3.23" shape="919.42,1111.28 920.31,1111.18 920.92,1111.82 921.27,1113.22" />
	</edge>
	<edge id=":101_0" function="internal">
		<lane id=":101_0_0" index="0" disallow="tram rail_urban rail rail_electric rail_fast ship" speed="8.94" length="15.98" shape="957.44,1001.08 956.53,1004.87 955.45,1008.81 954.28,1012.73 953.11,1016.45" />
	</edge>
	<edge id=":101_1" function="internal">
		<lane id=":101_1_0" index="0" disallow="tram rail_urban rail rail_electric rail_fast ship" speed="8.94" length="3.65" shape="957.44,1001.08 956.14,1004.21 955.97,1004.40" />
	</edge>
	<edge id=":101_2" function="internal">
		<lane id=":101_2_0" index="0" disallow="tram rail_urban rail rail_electric rail_fast ship" speed="3.65" length="1.44" shape="957.44,1001.08 956.41,1002.08" />
	</edge>
	<edge id=":101_9" function="internal">
		<lane id=":101_9_0" index="0" disallow="tram rail_urban rail rail_electric rail_fast ship" speed="8.94" length="12.47" shape="955.97,1004.40 953.71,1006.85 950.16,1009.02 945.48,1010.70" />
	</edge>
	<edge id=":101_10" function="internal">
		<lane id=":101_10_0" index="0" disallow="tram rail_urban rail rail_electric rail_fast ship" speed="3.65" length="3.23" shape="956.41,1002.08 955.54,1002.30 954.84,1001.74 954.32,1000.39" />
	</edge>
	<edge id=":101_3" function="internal">
		<lane id=":101_3_0" index="0" disallow="tram rail_urban rail rail_electric rail_fast ship" speed="8.94" length="12.65" shape="944.63,1007.61 948.47,1006.27 951.37,1004.62 953.31,1002.66 954.32,1000.39" />
	</edge>
	<edge id=":101_4" function="internal">
		<lane id=":101_4_0" index="0" disallow="tram rail_urban rail rail_electric rail_fast ship" speed="7.39" length="17.21" shape="944.63,1007.61 949.81,1006.89 952.95,1008.12 954.05,1011.31 953.11,1016.45" />
	</edge>
	<edge id=":101_5" function="internal">
		<lane id=":101_5_0" index="0" disallow="tram rail_urban rail rail_electric rail_fast ship" speed="3.65" length="4.67" shape="944.63,1007.61 946.00,1008.07 946.60,1008.73 946.43,1009.61 945.48,1010.70" />
	</edge>
	<edge id=":101_6" function="internal">
		<lane id=":101_6_0" index="0" disallow="tram rail_urban rail rail_electric rail_fast ship" speed="5.61" length="9.30" shape="950.07,1015.48 950.57,1012.70 949.98,1010.97 948.28,1010.31 945.48,1010.70" />
	</edge>
	<edge id=":101_7" function="internal">
		<lane id=":101_7_0" index="0" disallow="tram rail_urban rail rail_electric rail_fast ship" speed="8.94" length="15.68" shape="950.07,1015.48 951.22,1011.80 952.36,1007.98 953.42,1004.14 954.32,1000.39" />
	</edge>
	<edge id=":101_8" function="internal">
		<lane id=":101_8_0" index="0" disallow="tram rail_urban rail rail_electric rail_fast ship" speed="3.65" length="1.44" shape="950.07,1015.48 951.19,1014.58" />
	</edge>
	<edge id=":101_11" function="internal">
		<lane id=":101_11_0" index="0" disallow="tram rail_urban rail rail_electric rail_fast ship" speed="3.65" length="3.23" shape="951.19,1014.58 952.08,1014.44 952.72,1015.07 953.11,1016.45" />
	</edge>
	<edge id=":106_0" function="internal">
		<lane id=":106_0_0" index="0" disallow="tram rail_urban rail rail_electric rail_fast ship" speed="8.94" length="0.88" shape="297.90,959.37 297.64,959.36 297.46,959.34 297.29,959.27 297.07,959.14" />
	</edge>
	<edge id=":107_0" function="internal">
		<lane id=":107_0_0" index="0" disallow="tram rail_urban rail rail_electric rail_fast ship" speed="3.91" length="3.05" shape="238.40,914.90 237.60,914.56 237.17,914.05 237.11,913.40 237.42,912.59" />
	</edge>
	<edge id=":11_0" function="internal">
		<lane id=":11_0_0" index="0" disallow="tram rail_urban rail rail_electric rail_fast ship" speed="8.94" length="8.28" shape="288.87,1101.67 287.15,1103.43 285.93,1104.64 284.93,1105.98 283.87,1108.17" />
	</edge>
	<edge id=":11_1" function="internal">
		<lane id=":11_1_0" index="0" disallow="tram rail_urban rail rail_electric rail_fast ship" speed="6.65" length="10.31" shape="288.87,1101.67 287.04,1102.95 284.99,1103.01 282.71,1101.85 280.20,1099.47" />
	</edge>
	<edge id=":11_2" function="internal">
		<lane id=":11_2_0" index="0" disallow="tram rail_urban rail rail_electric rail_fast ship" speed="3.65" length="4.67" shape="288.87,1101.67 287.47,1102.02 286.61,1101.78 286.29,1100.94 286.50,1099.52" />
	</edge>
	<edge id=":11_3" function="internal">
		<lane id=":11_3_0" index="0" disallow="tram rail_urban rail rail_electric rail_fast ship" speed="6.80" length="7.65" shape="281.13,1106.49 281.88,1104.74 281.97,1102.98 281.41,1101.22 280.20,1099.47" />
	</edge>
	<edge id=":11_4" function="internal">
		<lane id=":11_4_0" index="0" disallow="tram rail_urban rail rail_electric rail_fast ship" speed="8.94" length="8.83" shape="281.13,1106.49 282.52,1104.28 283.57,1102.82 284.74,1101.46 286.50,1099.52" />
	</edge>
	<edge id=":11_5" function="internal">
		<lane id=":11_5_0" index="0" disallow="tram rail_urban rail rail_electric rail_fast ship" speed="3.73" length="4.70" shape="281.13,1106.49 282.44,1105.88 283.34,1105.96 283.82,1106.72 283.87,1108.17" />
	</edge>
	<edge id=":112_0" function="internal">
		<lane id=":112_0_0" index="0" disallow="tram rail_urban rail rail_electric rail_fast ship" speed="8.94" length="0.30" shape="262.13,1078.84 261.93,1078.62" />
	</edge>
	<edge id=":114_0" function="internal">
		<lane id=":114_0_0" index="0" disallow="tram rail_urban rail rail_electric rail_fast ship" speed="8.94" length="11.34" shape="434.04,1054.71 432.50,1051.80 431.40,1049.82 430.18,1047.93 428.24,1045.28" />
		<lane id=":114_0_1" index="1" disallow="tram rail_urban rail rail_electric rail_fast ship" speed="8.94" length="11.34" shape="436.86,1053.18 435.24,1050.15 434.10,1048.09 432.82,1046.11 430.79,1043.35" />
	</edge>
	<edge id=":114_2" function="internal">
		<lane id=":114_2_0" index="0" disallow="tram rail_urban rail rail_electric rail_fast ship" speed="6.33" length="9.43" shape="438.72,1044.24 436.68,1045.74 434.68,1046.10 432.72,1045.30 430.79,1043.35" />
	</edge>
	<edge id=":117_0" function="internal">
		<lane id=":117_0_0" index="0" disallow="tram rail_urban rail rail_electric rail_fast ship" speed="8.94" length="0.19" shape="683.18,987.98 683.09,988.15" />
	</edge>
	<edge id=":117_1" function="internal">
		<lane id=":117_1_0" index="0" disallow="tram rail_urban rail rail_electric rail_fast ship" speed="3.65" length="2.34" shape="683.18,987.98 681.89,988.62 681.00,988.57" />
	</edge>
	<edge id=":117_4" function="internal">
		<lane id=":117_4_0" index="0" disallow="tram rail_urban rail rail_electric rail_fast ship" speed="3.65" length="2.34" shape="681.00,988.57 680.50,987.83 680.40,986.39" />
	</edge>
	<edge id=":117_2" function="internal">
		<lane id=":117_2_0" index="0" disallow="tram rail_urban rail rail_electric rail_fast ship" speed="8.94" length="0.30" shape="680.26,986.65 680.40,986.39" />
	</edge>
	<edge id=":117_3" function="internal">
		<lane id=":117_3_0" index="0" disallow="tram rail_urban rail rail_electric rail_fast ship" speed="3.65" length="2.34" shape="680.26,986.65 681.53,985.96 682.42,985.98" />
	</edge>
	<edge id=":117_5" function="internal">
		<lane id=":117_5_0" index="0" disallow="tram rail_urban rail rail_electric rail_fast ship" speed="3.65" length="2.34" shape="682.42,985.98 682.94,986.71 683.09,988.15" />
	</edge>
	<edge id=":12_0" function="internal">
		<lane id=":12_0_0" index="0" disallow="bicycle tram rail_urban rail rail_electric rail_fast ship" speed="13.41" length="14.56" shape="1141.42,1327.96 1127.81,1333.12" />
	</edge>
	<edge id=":12_1" function="internal">
		<lane id=":12_1_0" index="0" disallow="bicycle tram rail_urban rail rail_electric rail_fast ship" speed="9.55" length="3.10" shape="1141.42,1327.96 1138.35,1328.35" />
	</edge>
	<edge id=":12_2" function="internal">
		<lane id=":12_2_0" index="0" disallow="bicycle tram rail_urban rail rail_electric rail_fast ship" speed="3.65" length="1.44" shape="1141.42,1327.96 1140.02,1327.63" />
	</edge>
	<edge id=":12_10" function="internal">
		<lane id=":12_10_0" index="0" disallow="bicycle tram rail_urban rail rail_electric rail_fast ship" speed="9.55" length="14.04" shape="1138.35,1328.35 1138.02,1328.40 1134.61,1327.19 1131.19,1324.35 1127.75,1319.86" />
	</edge>
	<edge id=":12_11" function="internal">
		<lane id=":12_11_0" index="0" disallow="bicycle tram rail_urban rail rail_electric rail_fast ship" speed="3.65" length="3.23" shape="1140.02,1327.63 1139.37,1327.02 1139.47,1326.13 1140.32,1324.96" />
	</edge>
	<edge id=":12_3" function="internal">
		<lane id=":12_3_0" index="0" disallow="bicycle tram rail_urban rail rail_electric rail_fast ship" speed="7.61" length="10.56" shape="1130.36,1318.01 1132.33,1320.44 1134.46,1321.91 1136.76,1322.41 1139.21,1321.96" />
	</edge>
	<edge id=":12_4" function="internal">
		<lane id=":12_4_0" index="0" disallow="bicycle tram rail_urban rail rail_electric rail_fast ship" speed="8.42" length="18.33" shape="1130.36,1318.01 1132.96,1323.19 1133.40,1327.44 1131.68,1330.75 1127.81,1333.12" />
	</edge>
	<edge id=":12_5" function="internal">
		<lane id=":12_5_0" index="0" disallow="tram rail_urban rail rail_electric rail_fast ship" speed="3.65" length="4.68" shape="1130.36,1318.01 1130.41,1319.45 1129.98,1320.24 1129.10,1320.38 1127.75,1319.86" />
	</edge>
	<edge id=":12_6" function="internal">
		<lane id=":12_6_0" index="0" disallow="bicycle tram rail_urban rail rail_electric rail_fast ship" speed="6.14" length="9.18" shape="1125.51,1327.15 1127.74,1325.89 1128.86,1324.26 1128.86,1322.25 1127.75,1319.86" />
	</edge>
	<edge id=":12_7" function="internal">
		<lane id=":12_7_0" index="0" disallow="bicycle tram rail_urban rail rail_electric rail_fast ship" speed="13.41" length="14.62" shape="1125.51,1327.15 1139.21,1321.96" />
		<lane id=":12_7_1" index="1" disallow="bicycle tram rail_urban rail rail_electric rail_fast ship" speed="13.41" length="14.62" shape="1126.66,1330.14 1140.32,1324.96" />
	</edge>
	<edge id=":12_9" function="internal">
		<lane id=":12_9_0" index="0" disallow="bicycle tram rail_urban rail rail_electric rail_fast ship" speed="3.65" length="1.44" shape="1126.66,1330.14 1128.07,1330.45" />
	</edge>
	<edge id=":12_12" function="internal">
		<lane id=":12_12_0" index="0" disallow="bicycle tram rail_urban rail rail_electric rail_fast ship" speed="3.65" length="3.23" shape="1128.07,1330.45 1128.73,1331.05 1128.65,1331.95 1127.81,1333.12" />
	</edge>
	<edge id=":120_0" function="internal">
		<lane id=":120_0_0" index="0" disallow="tram rail_urban rail rail_electric rail_fast ship" speed="8.94" length="10.90" shape="865.04,787.73 874.88,792.41" />
	</edge>
	<edge id=":120_1" function="internal">
		<lane id=":120_1_0" index="0" disallow="tram rail_urban rail rail_electric rail_fast ship" speed="6.55" length="8.85" shape="867.47,794.98 868.85,793.02 870.54,791.94 872.55,791.73 874.88,792.41" />
	</edge>
	<edge id=":121_0" function="internal">
		<lane id=":121_0_0" index="0" disallow="tram rail_urban rail rail_electric rail_fast ship" speed="8.94" length="10.85" shape="781.48,732.88 783.38,735.32 784.59,737.33 785.86,739.28 787.95,741.55" />
	</edge>
	<edge id=":121_1" function="internal">
		<lane id=":121_1_0" index="0" disallow="tram rail_urban rail rail_electric rail_fast ship" speed="8.76" length="10.56" shape="781.48,732.88 782.87,734.94 783.56,737.29 783.55,739.92 782.85,742.83" />
	</edge>
	<edge id=":121_2" function="internal">
		<lane id=":121_2_0" index="0" disallow="tram rail_urban rail rail_electric rail_fast ship" speed="3.65" length="4.67" shape="781.48,732.88 781.69,734.30 781.36,735.14 780.50,735.38 779.10,735.02" />
	</edge>
	<edge id=":121_3" function="internal">
		<lane id=":121_3_0" index="0" disallow="tram rail_urban rail rail_electric rail_fast ship" speed="7.30" length="7.15" shape="779.82,741.79 780.34,739.75 780.39,737.94 779.97,736.36 779.10,735.02" />
	</edge>
	<edge id=":121_4" function="internal">
		<lane id=":121_4_0" index="0" disallow="tram rail_urban rail rail_electric rail_fast ship" speed="6.12" length="10.37" shape="779.82,741.79 781.09,739.57 782.87,738.79 785.15,739.45 787.95,741.55" />
	</edge>
	<edge id=":121_5" function="internal">
		<lane id=":121_5_0" index="0" disallow="tram rail_urban rail rail_electric rail_fast ship" speed="3.65" length="4.67" shape="779.82,741.79 780.97,740.92 781.86,740.80 782.48,741.44 782.85,742.83" />
	</edge>
	<edge id=":123_0" function="internal">
		<lane id=":123_0_0" index="0" disallow="tram rail_urban rail rail_electric rail_fast ship" speed="8.94" length="11.46" shape="945.12,957.16 934.43,953.03" />
	</edge>
	<edge id=":123_1" function="internal">
		<lane id=":123_1_0" index="0" disallow="tram rail_urban rail rail_electric rail_fast ship" speed="8.94" length="12.63" shape="945.12,957.16 942.66,955.29 941.61,952.65 941.00,949.53 939.88,946.19" />
	</edge>
	<edge id=":123_2" function="internal">
		<lane id=":123_2_0" index="0" disallow="tram rail_urban rail rail_electric rail_fast ship" speed="3.65" length="4.67" shape="945.12,957.16 944.31,955.97 944.23,955.08 944.90,954.49 946.31,954.19" />
	</edge>
	<edge id=":123_3" function="internal">
		<lane id=":123_3_0" index="0" disallow="tram rail_urban rail rail_electric rail_fast ship" speed="5.41" length="9.68" shape="935.57,950.04 938.74,950.90 940.52,950.54 940.90,948.98 939.88,946.19" />
	</edge>
	<edge id=":123_4" function="internal">
		<lane id=":123_4_0" index="0" disallow="tram rail_urban rail rail_electric rail_fast ship" speed="8.94" length="11.52" shape="935.57,950.04 946.31,954.19" />
	</edge>
	<edge id=":123_5" function="internal">
		<lane id=":123_5_0" index="0" disallow="tram rail_urban rail rail_electric rail_fast ship" speed="3.65" length="4.67" shape="935.57,950.04 936.41,951.21 936.50,952.10 935.84,952.71 934.43,953.03" />
	</edge>
	<edge id=":124_0" function="internal">
		<lane id=":124_0_0" index="0" disallow="tram rail_urban rail rail_electric rail_fast ship" speed="8.94" length="11.25" shape="1212.58,968.06 1209.53,978.89" />
	</edge>
	<edge id=":124_1" function="internal">