<?xml version='1.0' encoding='utf-8'?>
<routes>
	<vType accel="3.0" decel="6.0" id="CarDefault" length="5.0" minGap="2.5" maxSpeed="50.0" sigma="0.5" />
	<route id="sr1064" edges="488 975 976 743 744 745 741 742 430 210 12 11 341 627 628 967 968 957 958 1002 1003 1004 1005 1006 1007 884 885 346" fromJunction="357" toJunction="315" />
	<route id="r4628" edges="288 287 739 415 233 886 774 502 892 893 503 13 371 335 253 252 269 268 387 386 383 821 822" fromJunction="241" toJunction="316" />
	<route id="r4627" edges="794 919 925 362 915 916 477 983 520 411 410 8" fromJunction="292" toJunction="357" />
	<route id="sr1066" edges="288 287 739 415 233 886 774 502 892 893 503 13 229 972 479 480 922 712 487 711 254 386 390 389 388 822" fromJunction="241" toJunction="316" />
	<route id="sr1065" edges="794 919 920 923 924 915 916 750 751 964 213 212 211 411 410 8" fromJunction="292" toJunction="357" />
	<route id="r4629" edges="488 984 985 989 990 641 959 338 292 69 617 621 233 886 774 502 18 17 16 15 62 110 546 547 548 549 891 766 550 551 552 99 98 318 346" fromJunction="357" toJunction="315" />
	<vehicle id="v95" depart="0.0" route="r4629" type="CarDefault" departLane="random" />
	<vehicle id="v1058" depart="0.0" route="r4627" type="CarDefault" departLane="random" />
	<vehicle id="v1932" depart="0.0" route="r4628" type="CarDefault" departLane="random" />
	<vehicle id="v96" depart="4.12" route="r4629" type="CarDefault" departLane="random" />
	<vehicle id="v1059" depart="4.12" route="r4627" type="CarDefault" departLane="random" />
	<vehicle id="v97" depart="8.24" route="r4629" type="CarDefault" departLane="random" />
	<vehicle id="v1060" depart="8.25" route="r4627" type="CarDefault" departLane="random" />
	<vehicle id="v1933" depart="8.82" route="r4628" type="CarDefault" departLane="random" />
	<vehicle id="v98" depart="12.36" route="r4629" type="CarDefault" departLane="random" />
	<vehicle id="v1061" depart="12.37" route="r4627" type="CarDefault" departLane="random" />
	<vehicle id="v970" depart="13" route="r4627" type="CarDefault" departLane="random" />
	<vehicle id="v99" depart="16.48" route="r4629" type="CarDefault" departLane="random" />
	<vehicle id="v1062" depart="16.49" route="r4627" type="CarDefault" departLane="random" />
	<vehicle id="v1934" depart="17.65" route="r4628" type="CarDefault" departLane="random" />
	<vehicle id="v0" depart="18" route="r4629" type="CarDefault" departLane="random" />
	<vehicle id="v100" depart="20.59" route="r4629" type="CarDefault" departLane="random" />
	<vehicle id="v1063" depart="20.62" route="r4627" type="CarDefault" departLane="random" />
	<vehicle id="v101" depart="24.71" route="r4629" type="CarDefault" departLane="random" />
	<vehicle id="v1064" depart="24.74" route="r4627" type="CarDefault" departLane="random" />
	<vehicle id="v1935" depart="26.47" route="r4628" type="CarDefault" departLane="random" />
	<vehicle id="v102" depart="28.83" route="r4629" type="CarDefault" departLane="random" />
	<vehicle id="v1065" depart="28.87" route="r4627" type="CarDefault" departLane="random" />
	<vehicle id="v103" depart="32.95" route="r4629" type="CarDefault" departLane="random" />
	<vehicle id="v1066" depart="32.99" route="r4627" type="CarDefault" departLane="random" />
	<vehicle id="v1" depart="33" route="r4629" type="CarDefault" departLane="random" />
	<vehicle id="v1936" depart="35.29" route="r4628" type="CarDefault" departLane="random" />
	<vehicle id="v104" depart="37.07" route="r4629" type="CarDefault" departLane="random" />
	<vehicle id="v1067" depart="37.11" route="r4627" type="CarDefault" departLane="random" />
	<vehicle id="v105" depart="41.19" route="r4629" type="CarDefault" departLane="random" />
	<vehicle id="v1068" depart="41.24" route="r4627" type="CarDefault" departLane="random" />
	<vehicle id="v1937" depart="44.12" route="r4628" type="CarDefault" departLane="random" />
	<vehicle id="v106" depart="45.31" route="r4629" type="CarDefault" departLane="random" />
	<vehicle id="v1069" depart="45.36" route="r4627" type="CarDefault" departLane="random" />
	<vehicle id="v107" depart="49.43" route="r4629" type="CarDefault" departLane="random" />
	<vehicle id="v1070" depart="49.48" route="r4627" type="CarDefault" departLane="random" />
	<vehicle id="v1938" depart="52.94" route="r4628" type="CarDefault" departLane="random" />
	<vehicle id="v108" depart="53.55" route="r4629" type="CarDefault" departLane="random" />
	<vehicle id="v1071" depart="53.61" route="r4627" type="CarDefault" departLane="random" />
	<vehicle id="v109" depart="57.67" route="r4629" type="CarDefault" departLane="random" />
	<vehicle id="v1072" depart="57.73" route="r4627" type="CarDefault" departLane="random" />
	<vehicle id="v1939" depart="61.76" route="r4628" type="CarDefault" departLane="random" />
	<vehicle id="v110" depart="61.78" route="r4629" type="CarDefault" departLane="random" />
	<vehicle id="v1073" depart="61.86" route="r4627" type="CarDefault" departLane="random" />
	<vehicle id="v2" depart="64" route="r4629" type="CarDefault" departLane="random" />
	<vehicle id="v971" depart="65" route="r4627" type="CarDefault" departLane="random" />
	<vehicle id="v111" depart="65.9" route="r4629" type="CarDefault" departLane="random" />
	<vehicle id="v1074" depart="65.98" route="r4627" type="CarDefault" departLane="random" />
	<vehicle id="v112" depart="70.02" route="r4629" type="CarDefault" departLane="random" />
	<vehicle id="v1075" depart="70.1" route="r4627" type="CarDefault" departLane="random" />
	<vehicle id="v1940" depart="70.59" route="r4628" type="CarDefault" departLane="random" />
	<vehicle id="v113" depart="74.14" route="r4629" type="CarDefault" departLane="random" />
	<vehicle id="v1076" depart="74.23" route="r4627" type="CarDefault" departLane="random" />
	<vehicle id="v114" depart="78.26" route="r4629" type="CarDefault" departLane="random" />
	<vehicle id="v1077" depart="78.35" route="r4627" type="CarDefault" departLane="random" />
	<vehicle id="v1941" depart="79.41" route="r4628" type="CarDefault" departLane="random" />
	<vehicle id="v115" depart="82.38" route="r4629" type="CarDefault" departLane="random" />
	<vehicle id="v1078" depart="82.47" route="r4627" type="CarDefault" departLane="random" />
	<vehicle id="v116" depart="86.5" route="r4629" type="CarDefault" departLane="random" />
	<vehicle id="v1079" depart="86.6" route="r4627" type="CarDefault" departLane="random" />
	<vehicle id="v1942" depart="88.24" route="r4628" type="CarDefault" departLane="random" />
	<vehicle id="v117" depart="90.62" route="r4629" type="CarDefault" departLane="random" />
	<vehicle id="v1080" depart="90.72" route="r4627" type="CarDefault" departLane="random" />
	<vehicle id="v118" depart="94.74" route="r4629" type="CarDefault" departLane="random" />
	<vehicle id="v1081" depart="94.85" route="r4627" type="CarDefault" departLane="random" />
	<vehicle id="v1943" depart="97.06" route="r4628" type="CarDefault" departLane="random" />
	<vehicle id="v119" depart="98.86" route="r4629" type="CarDefault" departLane="random" />
	<vehicle id="v1082" depart="98.97" route="r4627" type="CarDefault" departLane="random" />
	<vehicle id="v120" depart="102.97" route="r4629" type="CarDefault" departLane="random" />
	<vehicle id="v1083" depart="103.09" route="r4627" type="CarDefault" departLane="random" />
	<vehicle id="v1944" depart="105.88" route="r4628" type="CarDefault" departLane="random" />
	<vehicle id="v121" depart="107.09" route="r4629" type="CarDefault" departLane="random" />
	<vehicle id="v1084" depart="107.22" route="r4627" type="CarDefault" departLane="random" />
	<vehicle id="v972" depart="108" route="r4627" type="CarDefault" departLane="random" />
	<vehicle id="v122" depart="111.21" route="r4629" type="CarDefault" departLane="random" />
	<vehicle id="v1085" depart="111.34" route="r4627" type="CarDefault" departLane="random" />
	<vehicle id="v1945" depart="114.71" route="r4628" type="CarDefault" departLane="random" />
	<vehicle id="v123" depart="115.33" route="r4629" type="CarDefault" departLane="random" />
	<vehicle id="v1086" depart="115.46" route="r4627" type="CarDefault" departLane="random" />
	<vehicle id="v124" depart="119.45" route="r4629" type="CarDefault" departLane="random" />
	<vehicle id="v1087" depart="119.59" route="r4627" type="CarDefault" departLane="random" />
	<vehicle id="v1946" depart="123.53" route="r4628" type="CarDefault" departLane="random" />
	<vehicle id="v125" depart="123.57" route="r4629" type="CarDefault" departLane="random" />
	<vehicle id="v1088" depart="123.71" route="r4627" type="CarDefault" departLane="random" />
	<vehicle id="v126" depart="127.69" route="r4629" type="CarDefault" departLane="random" />
	<vehicle id="v1089" depart="127.84" route="r4627" type="CarDefault" departLane="random" />
	<vehicle id="v127" depart="131.81" route="r4629" type="CarDefault" departLane="random" />
	<vehicle id="v1090" depart="131.96" route="r4627" type="CarDefault" departLane="random" />
	<vehicle id="v1947" depart="132.35" route="r4628" type="CarDefault" departLane="random" />
	<vehicle id="v3" depart="133" route="r4629" type="CarDefault" departLane="random" />
	<vehicle id="v128" depart="135.93" route="r4629" type="CarDefault" departLane="random" />
	<vehicle id="v1091" depart="136.08" route="r4627" type="CarDefault" departLane="random" />
	<vehicle id="v973" depart="138" route="r4627" type="CarDefault" departLane="random" />
	<vehicle id="v129" depart="140.05" route="r4629" type="CarDefault" departLane="random" />
	<vehicle id="v1092" depart="140.21" route="r4627" type="CarDefault" departLane="random" />
	<vehicle id="v1948" depart="141.18" route="r4628" type="CarDefault" departLane="random" />
	<vehicle id="v4" depart="142" route="r4629" type="CarDefault" departLane="random" />
	<vehicle id="v130" depart="144.16" route="r4629" type="CarDefault" departLane="random" />
	<vehicle id="v1093" depart="144.33" route="r4627" type="CarDefault" departLane="random" />
	<vehicle id="v131" depart="148.28" route="r4629" type="CarDefault" departLane="random" />
	<vehicle id="v1094" depart="148.45" route="r4627" type="CarDefault" departLane="random" />
	<vehicle id="v1949" depart="150.0" route="r4628" type="CarDefault" departLane="random" />
	<vehicle id="v132" depart="152.4" route="r4629" type="CarDefault" departLane="random" />
	<vehicle id="v1095" depart="152.58" route="r4627" type="CarDefault" departLane="random" />
	<vehicle id="v974" depart="155" route="r4627" type="CarDefault" departLane="random" />
	<vehicle id="v133" depart="156.52" route="r4629" type="CarDefault" departLane="random" />
	<vehicle id="v1096" depart="156.7" route="r4627" type="CarDefault" departLane="random" />
	<vehicle id="v1950" depart="158.82" route="r4628" type="CarDefault" departLane="random" />
	<vehicle id="v134" depart="160.64" route="r4629" type="CarDefault" departLane="random" />
	<vehicle id="v1097" depart="160.82" route="r4627" type="CarDefault" departLane="random" />
	<vehicle id="v135" depart="164.76" route="r4629" type="CarDefault" departLane="random" />
	<vehicle id="v1098" depart="164.95" route="r4627" type="CarDefault" departLane="random" />
	<vehicle id="v1951" depart="167.65" route="r4628" type="CarDefault" departLane="random" />
	<vehicle id="v136" depart="168.88" route="r4629" type="CarDefault" departLane="random" />
	<vehicle id="v1099" depart="169.07" route="r4627" type="CarDefault" departLane="random" />
	<vehicle id="v975" depart="170" route="r4627" type="CarDefault" departLane="random" />
	<vehicle id="v137" depart="173.0" route="r4629" type="CarDefault" departLane="random" />
	<vehicle id="v1100" depart="173.2" route="r4627" type="CarDefault" departLane="random" />
	<vehicle id="v1952" depart="176.47" route="r4628" type="CarDefault" departLane="random" />
	<vehicle id="v138" depart="177.12" route="r4629" type="CarDefault" departLane="random" />
	<vehicle id="v1101" depart="177.32" route="r4627" type="CarDefault" departLane="random" />
	<vehicle id="v139" depart="181.24" route="r4629" type="CarDefault" departLane="random" />
	<vehicle id="v1102" depart="181.44" route="r4627" type="CarDefault" departLane="random" />
	<vehicle id="v1953" depart="185.29" route="r4628" type="CarDefault" departLane="random" />
	<vehicle id="v140" depart="185.35" route="r4629" type="CarDefault" departLane="random" />
	<vehicle id="v1103" depart="185.57" route="r4627" type="CarDefault" departLane="random" />
	<vehicle id="v5" depart="187" route="r4629" type="CarDefault" departLane="random" />
	<vehicle id="v141" depart="189.47" route="r4629" type="CarDefault" departLane="random" />
	<vehicle id="v1104" depart="189.69" route="r4627" type="CarDefault" departLane="random" />
	<vehicle id="v142" depart="193.59" route="r4629" type="CarDefault" departLane="random" />
	<vehicle id="v1105" depart="193.81" route="r4627" type="CarDefault" departLane="random" />
	<vehicle id="v976" depart="194" route="r4627" type="CarDefault" departLane="random" />
	<vehicle id="v1954" depart="194.12" route="r4628" type="CarDefault" departLane="random" />
	<vehicle id="v143" depart="197.71" route="r4629" type="CarDefault" departLane="random" />
	<vehicle id="v1106" depart="197.94" route="r4627" type="CarDefault" departLane="random" />
	<vehicle id="v144" depart="201.83" route="r4629" type="CarDefault" departLane="random" />
	<vehicle id="v1107" depart="202.06" route="r4627" type="CarDefault" departLane="random" />
	<vehicle id="v1955" depart="202.94" route="r4628" type="CarDefault" departLane="random" />
	<vehicle id="v145" depart="205.95" route="r4629" type="CarDefault" departLane="random" />
	<vehicle id="v1108" depart="206.19" route="r4627" type="CarDefault" departLane="random" />
	<vehicle id="v146" depart="210.07" route="r4629" type="CarDefault" departLane="random" />
	<vehicle id="v1109" depart="210.31" route="r4627" type="CarDefault" departLane="random" />
	<vehicle id="v1956" depart="211.76" route="r4628" type="CarDefault" departLane="random" />
	<vehicle id="v147" depart="214.19" route="r4629" type="CarDefault" departLane="random" />
	<vehicle id="v1110" depart="214.43" route="r4627" type="CarDefault" departLane="random" />
	<vehicle id="v148" depart="218.31" route="r4629" type="CarDefault" departLane="random" />
	<vehicle id="v1111" depart="218.56" route="r4627" type="CarDefault" departLane="random" />
	<vehicle id="v1957" depart="220.59" route="r4628" type="CarDefault" departLane="random" />
	<vehicle id="v6" depart="222" route="r4629" type="CarDefault" departLane="random" />
	<vehicle id="v149" depart="222.43" route="r4629" type="CarDefault" departLane="random" />
	<vehicle id="v1112" depart="222.68" route="r4627" type="CarDefault" departLane="random" />
	<vehicle id="v977" depart="224" route="r4627" type="CarDefault" departLane="random" />
	<vehicle id="v150" depart="226.54" route="r4629" type="CarDefault" departLane="random" />
	<vehicle id="v1113" depart="226.8" route="r4627" type="CarDefault" departLane="random" />
	<vehicle id="v1958" depart="229.41" route="r4628" type="CarDefault" departLane="random" />
	<vehicle id="v151" depart="230.66" route="r4629" type="CarDefault" departLane="random" />
	<vehicle id="v1114" depart="230.93" route="r4627" type="CarDefault" departLane="random" />
	<vehicle id="v152" depart="234.78" route="r4629" type="CarDefault" departLane="random" />
	<vehicle id="v1115" depart="235.05" route="r4627" type="CarDefault" departLane="random" />
	<vehicle id="v1959" depart="238.24" route="r4628" type="CarDefault" departLane="random" />
	<vehicle id="v153" depart="238.9" route="r4629" type="CarDefault" departLane="random" />
	<vehicle id="v1116" depart="239.18" route="r4627" type="CarDefault" departLane="random" />
	<vehicle id="v978" depart="241" route="r4627" type="CarDefault" departLane="random" />
	<vehicle id="v154" depart="243.02" route="r4629" type="CarDefault" departLane="random" />
	<vehicle id="v1117" depart="243.3" route="r4627" type="CarDefault" departLane="random" />
	<vehicle id="v1960" depart="247.06" route="r4628" type="CarDefault" departLane="random" />
	<vehicle id="v155" depart="247.14" route="r4629" type="CarDefault" departLane="random" />
	<vehicle id="v1118" depart="247.42" route="r4627" type="CarDefault" departLane="random" />
	<vehicle id="v156" depart="251.26" route="r4629" type="CarDefault" departLane="random" />
	<vehicle id="v1119" depart="251.55" route="r4627" type="CarDefault" departLane="random" />
	<vehicle id="v157" depart="255.38" route="r4629" type="CarDefault" departLane="random" />
	<vehicle id="v1120" depart="255.67" route="r4627" type="CarDefault" departLane="random" />
	<vehicle id="v1961" depart="255.88" route="r4628" type="CarDefault" departLane="random" />
	<vehicle id="v7" depart="259" route="r4629" type="CarDefault" departLane="random" />
	<vehicle id="v158" depart="259.5" route="r4629" type="CarDefault" departLane="random" />
	<vehicle id="v1121" depart="259.79" route="r4627" type="CarDefault" departLane="random" />
	<vehicle id="v159" depart="263.62" route="r4629" type="CarDefault" departLane="random" />
	<vehicle id="v1122" depart="263.92" route="r4627" type="CarDefault" departLane="random" />
	<vehicle id="v1962" depart="264.71" route="r4628" type="CarDefault" departLane="random" />
	<vehicle id="v160" depart="267.73" route="r4629" type="CarDefault" departLane="random" />
	<vehicle id="v1123" depart="268.04" route="r4627" type="CarDefault" departLane="random" />
	<vehicle id="v161" depart="271.85" route="r4629" type="CarDefault" departLane="random" />
	<vehicle id="v1124" depart="272.16" route="r4627" type="CarDefault" departLane="random" />
	<vehicle id="v1963" depart="273.53" route="r4628" type="CarDefault" departLane="random" />
	<vehicle id="v162" depart="275.97" route="r4629" type="CarDefault" departLane="random" />
	<vehicle id="v1125" depart="276.29" route="r4627" type="CarDefault" departLane="random" />
	<vehicle id="v8" depart="279" route="r4629" type="CarDefault" departLane="random" />
	<vehicle id="v163" depart="280.09" route="r4629" type="CarDefault" departLane="random" />
	<vehicle id="v1126" depart="280.41" route="r4627" type="CarDefault" departLane="random" />
	<vehicle id="v1964" depart="282.35" route="r4628" type="CarDefault" departLane="random" />
	<vehicle id="v164" depart="284.21" route="r4629" type="CarDefault" departLane="random" />
	<vehicle id="v1127" depart="284.54" route="r4627" type="CarDefault" departLane="random" />
	<vehicle id="v165" depart="288.33" route="r4629" type="CarDefault" departLane="random" />
	<vehicle id="v1128" depart="288.66" route="r4627" type="CarDefault" departLane="random" />
	<vehicle id="v1965" depart="291.18" route="r4628" type="CarDefault" departLane="random" />
	<vehicle id="v166" depart="292.45" route="r4629" type="CarDefault" departLane="random" />
	<vehicle id="v1129" depart="292.78" route="r4627" type="CarDefault" departLane="random" />
	<vehicle id="v167" depart="296.57" route="r4629" type="CarDefault" departLane="random" />
	<vehicle id="v1130" depart="296.91" route="r4627" type="CarDefault" departLane="random" />
	<vehicle id="v1966" depart="300.0" route="r4628" type="CarDefault" departLane="random" />
	<vehicle id="v168" depart="300.69" route="r4629" type="CarDefault" departLane="random" />
	<vehicle id="v1131" depart="301.03" route="r4627" type="CarDefault" departLane="random" />
	<vehicle id="v169" depart="304.81" route="r4629" type="CarDefault" departLane="random" />
	<vehicle id="v1132" depart="305.15" route="r4627" type="CarDefault" departLane="random" />
	<vehicle id="v1967" depart="308.82" route="r4628" type="CarDefault" departLane="random" />
	<vehicle id="v170" depart="308.92" route="r4629" type="CarDefault" departLane="random" />
	<vehicle id="v1133" depart="309.28" route="r4627" type="CarDefault" departLane="random" />
	<vehicle id="v171" depart="313.04" route="r4629" type="CarDefault" departLane="random" />
	<vehicle id="v1134" depart="313.4" route="r4627" type="CarDefault" departLane="random" />
	<vehicle id="v9" depart="315" route="r4629" type="CarDefault" departLane="random" />
	<vehicle id="v172" depart="317.16" route="r4629" type="CarDefault" departLane="random" />
	<vehicle id="v1135" depart="317.53" route="r4627" type="CarDefault" departLane="random" />
	<vehicle id="v1968" depart="317.65" route="r4628" type="CarDefault" departLane="random" />
	<vehicle id="v173" depart="321.28" route="r4629" type="CarDefault" departLane="random" />
	<vehicle id="v1136" depart="321.65" route="r4627" type="CarDefault" departLane="random" />
	<vehicle id="v10" depart="325" route="r4629" type="CarDefault" departLane="random" />
	<vehicle id="v174" depart="325.4" route="r4629" type="CarDefault" departLane="random" />
	<vehicle id="v1137" depart="325.77" route="r4627" type="CarDefault" departLane="random" />
	<vehicle id="v1969" depart="326.47" route="r4628" type="CarDefault" departLane="random" />
	<vehicle id="v175" depart="329.52" route="r4629" type="CarDefault" departLane="random" />
	<vehicle id="v1138" depart="329.9" route="r4627" type="CarDefault" departLane="random" />
	<vehicle id="v176" depart="333.64" route="r4629" type="CarDefault" departLane="random" />
	<vehicle id="v1139" depart="334.02" route="r4627" type="CarDefault" departLane="random" />
	<vehicle id="v1970" depart="335.29" route="r4628" type="CarDefault" departLane="random" />
	<vehicle id="v177" depart="337.76" route="r4629" type="CarDefault" departLane="random" />
	<vehicle id="v1140" depart="338.14" route="r4627" type="CarDefault" departLane="random" />
	<vehicle id="v178" depart="341.88" route="r4629" type="CarDefault" departLane="random" />
	<vehicle id="v1141" depart="342.27" route="r4627" type="CarDefault" departLane="random" />
	<vehicle id="v1971" depart="344.12" route="r4628" type="CarDefault" departLane="random" />
	<vehicle id="v179" depart="346.0" route="r4629" type="CarDefault" departLane="random" />
	<vehicle id="v1142" depart="346.39" route="r4627" type="CarDefault" departLane="random" />
	<vehicle id="v979" depart="347" route="r4627" type="CarDefault" departLane="random" />
	<vehicle id="v180" depart="350.11" route="r4629" type="CarDefault" departLane="random" />
	<vehicle id="v1143" depart="350.52" route="r4627" type="CarDefault" departLane="random" />
	<vehicle id="v1972" depart="352.94" route="r4628" type="CarDefault" departLane="random" />
	<vehicle id="v181" depart="354.23" route="r4629" type="CarDefault" departLane="random" />
	<vehicle id="v1144" depart="354.64" route="r4627" type="CarDefault" departLane="random" />
	<vehicle id="v11" depart="356" route="r4629" type="CarDefault" departLane="random" />
	<vehicle id="v182" depart="358.35" route="r4629" type="CarDefault" departLane="random" />
	<vehicle id="v1145" depart="358.76" route="r4627" type="CarDefault" departLane="random" />
	<vehicle id="v1973" depart="361.76" route="r4628" type="CarDefault" departLane="random" />
	<vehicle id="v183" depart="362.47" route="r4629" type="CarDefault" departLane="random" />
	<vehicle id="v1146" depart="362.89" route="r4627" type="CarDefault" departLane="random" />
	<vehicle id="v184" depart="366.59" route="r4629" type="CarDefault" departLane="random" />
	<vehicle id="v1147" depart="367.01" route="r4627" type="CarDefault" departLane="random" />
	<vehicle id="v1974" depart="370.59" route="r4628" type="CarDefault" departLane="random" />
	<vehicle id="v185" depart="370.71" route="r4629" type="CarDefault" departLane="random" />
	<vehicle id="v12" depart="371" route="r4629" type="CarDefault" departLane="random" />
	<vehicle id="v1148" depart="371.13" route="r4627" type="CarDefault" departLane="random" />
	<vehicle id="v186" depart="374.83" route="r4629" type="CarDefault" departLane="random" />
	<vehicle id="v1149" depart="375.26" route="r4627" type="CarDefault" departLane="random" />
	<vehicle id="v187" depart="378.95" route="r4629" type="CarDefault" departLane="random" />
	<vehicle id="v1150" depart="379.38" route="r4627" type="CarDefault" departLane="random" />
	<vehicle id="v1975" depart="379.41" route="r4628" type="CarDefault" departLane="random" />
	<vehicle id="v188" depart="383.07" route="r4629" type="CarDefault" departLane="random" />
	<vehicle id="v1151" depart="383.51" route="r4627" type="CarDefault" departLane="random" />
	<vehicle id="v13" depart="384" route="r4629" type="CarDefault" departLane="random" />
	<vehicle id="v189" depart="387.19" route="r4629" type="CarDefault" departLane="random" />
	<vehicle id="v1152" depart="387.63" route="r4627" type="CarDefault" departLane="random" />
	<vehicle id="v1976" depart="388.24" route="r4628" type="CarDefault" departLane="random" />
	<vehicle id="v190" depart="391.3" route="r4629" type="CarDefault" departLane="random" />
	<vehicle id="v1153" depart="391.75" route="r4627" type="CarDefault" departLane="random" />
	<vehicle id="v191" depart="395.42" route="r4629" type="CarDefault" departLane="random" />
	<vehicle id="v1154" depart="395.88" route="r4627" type="CarDefault" departLane="random" />
	<vehicle id="v1977" depart="397.06" route="r4628" type="CarDefault" departLane="random" />
	<vehicle id="v192" depart="399.54" route="r4629" type="CarDefault" departLane="random" />
	<vehicle id="v1155" depart="400.0" route="r4627" type="CarDefault" departLane="random" />
	<vehicle id="v193" depart="403.66" route="r4629" type="CarDefault" departLane="random" />
	<vehicle id="v1156" depart="404.12" route="r4627" type="CarDefault" departLane="random" />
	<vehicle id="v980" depart="405" route="r4627" type="CarDefault" departLane="random" />
	<vehicle id="v1978" depart="405.88" route="r4628" type="CarDefault" departLane="random" />
	<vehicle id="v194" depart="407.78" route="r4629" type="CarDefault" departLane="random" />
	<vehicle id="v1157" depart="408.25" route="r4627" type="CarDefault" departLane="random" />
	<vehicle id="v195" depart="411.9" route="r4629" type="CarDefault" departLane="random" />
	<vehicle id="v1158" depart="412.37" route="r4627" type="CarDefault" departLane="random" />
	<vehicle id="v1979" depart="414.71" route="r4628" type="CarDefault" departLane="random" />
	<vehicle id="v196" depart="416.02" route="r4629" type="CarDefault" departLane="random" />
	<vehicle id="v1159" depart="416.49" route="r4627" type="CarDefault" departLane="random" />
	<vehicle id="v197" depart="420.14" route="r4629" type="CarDefault" departLane="random" />
	<vehicle id="v1160" depart="420.62" route="r4627" type="CarDefault" departLane="random" />
	<vehicle id="v1980" depart="423.53" route="r4628" type="CarDefault" departLane="random" />
	<vehicle id="v198" depart="424.26" route="r4629" type="CarDefault" departLane="random" />
	<vehicle id="v1161" depart="424.74" route="r4627" type="CarDefault" departLane="random" />
	<vehicle id="v199" depart="428.38" route="r4629" type="CarDefault" departLane="random" />
	<vehicle id="v1162" depart="428.87" route="r4627" type="CarDefault" departLane="random" />
	<vehicle id="v1981" depart="432.35" route="r4628" type="CarDefault" departLane="random" />
	<vehicle id="v200" depart="432.49" route="r4629" type="CarDefault" departLane="random" />
	<vehicle id="v1163" depart="432.99" route="r4627" type="CarDefault" departLane="random" />
	<vehicle id="v201" depart="436.61" route="r4629" type="CarDefault" departLane="random" />
	<vehicle id="v1164" depart="437.11" route="r4627" type="CarDefault" departLane="random" />
	<vehicle id="v202" depart="440.73" route="r4629" type="CarDefault" departLane="random" />
	<vehicle id="v1982" depart="441.18" route="r4628" type="CarDefault" departLane="random" />
	<vehicle id="v1165" depart="441.24" route="r4627" type="CarDefault" departLane="random" />
	<vehicle id="v203" depart="444.85" route="r4629" type="CarDefault" departLane="random" />
	<vehicle id="v1166" depart="445.36" route="r4627" type="CarDefault" departLane="random" />
	<vehicle id="v204" depart="448.97" route="r4629" type="CarDefault" departLane="random" />
	<vehicle id="v1167" depart="449.48" route="r4627" type="CarDefault" departLane="random" />
	<vehicle id="v1983" depart="450.0" route="r4628" type="CarDefault" departLane="random" />
	<vehicle id="v14" depart="452" route="r4629" type="CarDefault" departLane="random" />
	<vehicle id="v205" depart="453.09" route="r4629" type="CarDefault" departLane="random" />
	<vehicle id="v1168" depart="453.61" route="r4627" type="CarDefault" departLane="random" />
	<vehicle id="v206" depart="457.21" route="r4629" type="CarDefault" departLane="random" />
	<vehicle id="v1169" depart="457.73" route="r4627" type="CarDefault" departLane="random" />
	<vehicle id="v1984" depart="458.82" route="r4628" type="CarDefault" departLane="random" />
	<vehicle id="v981" depart="459" route="r4627" type="CarDefault" departLane="random" />
	<vehicle id="v15" depart="460" route="r4629" type="CarDefault" departLane="random" />
	<vehicle id="v207" depart="461.33" route="r4629" type="CarDefault" departLane="random" />
	<vehicle id="v1170" depart="461.86" route="r4627" type="CarDefault" departLane="random" />
	<vehicle id="v208" depart="465.45" route="r4629" type="CarDefault" departLane="random" />
	<vehicle id="v1171" depart="465.98" route="r4627" type="CarDefault" departLane="random" />
	<vehicle id="v1985" depart="467.65" route="r4628" type="CarDefault" departLane="random" />
	<vehicle id="v209" depart="469.57" route="r4629" type="CarDefault" departLane="random" />
	<vehicle id="v1172" depart="470.1" route="r4627" type="CarDefault" departLane="random" />
	<vehicle id="v982" depart="472" route="r4627" type="CarDefault" departLane="random" />
	<vehicle id="v210" depart="473.68" route="r4629" type="CarDefault" departLane="random" />
	<vehicle id="v1173" depart="474.23" route="r4627" type="CarDefault" departLane="random" />
	<vehicle id="v1986" depart="476.47" route="r4628" type="CarDefault" departLane="random" />
	<vehicle id="v211" depart="477.8" route="r4629" type="CarDefault" departLane="random" />
	<vehicle id="v1174" depart="478.35" route="r4627" type="CarDefault" departLane="random" />