<?xml version='1.0' encoding='utf-8'?>
<routes>
	<vType accel="3.0" decel="6.0" id="CarDefault" length="5.0" minGap="2.5" maxSpeed="50.0" sigma="0.5" />
	<route id="sr30635" edges="226 227 228 116 359 300 301 124 30 29 397 398 399 400 401 237 0" fromJunction="127" toJunction="117" />
	<route id="sr30636" edges="62 129 61 6 5 161 162 361 163 164 38 134 116 115 114 113 112 74 73 72 71 70 69 68" fromJunction="154" toJunction="42" />
	<route id="sr30637" edges="279 280 281 282 283 284 285 394 395 396 28 27 26 25 50" fromJunction="42" toJunction="11" />
	<vehicle id="v11304" depart="0.0" route="sr30635" type="CarDefault" departLane="random" />
	<vehicle id="v12125" depart="0.0" route="sr30636" type="CarDefault" departLane="random" />
	<vehicle id="v13107" depart="0.0" route="sr30637" type="CarDefault" departLane="random" />
	<vehicle id="v13108" depart="3.22" route="sr30637" type="CarDefault" departLane="random" />
	<vehicle id="v13109" depart="6.45" route="sr30637" type="CarDefault" departLane="random" />
	<vehicle id="v12126" depart="8.11" route="sr30636" type="CarDefault" departLane="random" />
	<vehicle id="v11305" depart="8.82" route="sr30635" type="CarDefault" departLane="random" />
	<vehicle id="v13110" depart="9.67" route="sr30637" type="CarDefault" departLane="random" />
	<vehicle id="v13111" depart="12.89" route="sr30637" type="CarDefault" departLane="random" />
	<vehicle id="v13112" depart="16.11" route="sr30637" type="CarDefault" departLane="random" />
	<vehicle id="v12127" depart="16.22" route="sr30636" type="CarDefault" departLane="random" />
	<vehicle id="v13015" depart="17" route="sr30637" type="CarDefault" departLane="random" />
	<vehicle id="v11306" depart="17.65" route="sr30635" type="CarDefault" departLane="random" />
	<vehicle id="v13113" depart="19.34" route="sr30637" type="CarDefault" departLane="random" />
	<vehicle id="v13114" depart="22.56" route="sr30637" type="CarDefault" departLane="random" />
	<vehicle id="v12128" depart="24.32" route="sr30636" type="CarDefault" departLane="random" />
	<vehicle id="v13115" depart="25.78" route="sr30637" type="CarDefault" departLane="random" />
	<vehicle id="v11307" depart="26.47" route="sr30635" type="CarDefault" departLane="random" />
	<vehicle id="v13116" depart="29.01" route="sr30637" type="CarDefault" departLane="random" />
	<vehicle id="v13117" depart="32.23" route="sr30637" type="CarDefault" departLane="random" />
	<vehicle id="v12129" depart="32.43" route="sr30636" type="CarDefault" departLane="random" />
	<vehicle id="v11308" depart="35.29" route="sr30635" type="CarDefault" departLane="random" />
	<vehicle id="v13118" depart="35.45" route="sr30637" type="CarDefault" departLane="random" />
	<vehicle id="v13016" depart="36" route="sr30637" type="CarDefault" departLane="random" />
	<vehicle id="v13119" depart="38.68" route="sr30637" type="CarDefault" departLane="random" />
	<vehicle id="v12130" depart="40.54" route="sr30636" type="CarDefault" departLane="random" />
	<vehicle id="v13120" depart="41.9" route="sr30637" type="CarDefault" departLane="random" />
	<vehicle id="v11309" depart="44.12" route="sr30635" type="CarDefault" departLane="random" />
	<vehicle id="v13121" depart="45.12" route="sr30637" type="CarDefault" departLane="random" />
	<vehicle id="v13122" depart="48.34" route="sr30637" type="CarDefault" departLane="random" />
	<vehicle id="v12131" depart="48.65" route="sr30636" type="CarDefault" departLane="random" />
	<vehicle id="v13123" depart="51.57" route="sr30637" type="CarDefault" departLane="random" />
	<vehicle id="v11310" depart="52.94" route="sr30635" type="CarDefault" departLane="random" />
	<vehicle id="v13124" depart="54.79" route="sr30637" type="CarDefault" departLane="random" />
	<vehicle id="v12132" depart="56.76" route="sr30636" type="CarDefault" departLane="random" />
	<vehicle id="v13125" depart="58.01" route="sr30637" type="CarDefault" departLane="random" />
	<vehicle id="v13126" depart="61.24" route="sr30637" type="CarDefault" departLane="random" />
	<vehicle id="v11311" depart="61.76" route="sr30635" type="CarDefault" departLane="random" />
	<vehicle id="v13127" depart="64.46" route="sr30637" type="CarDefault" departLane="random" />
	<vehicle id="v12133" depart="64.86" route="sr30636" type="CarDefault" departLane="random" />
	<vehicle id="v13128" depart="67.68" route="sr30637" type="CarDefault" departLane="random" />
	<vehicle id="v11312" depart="70.59" route="sr30635" type="CarDefault" departLane="random" />
	<vehicle id="v13129" depart="70.9" route="sr30637" type="CarDefault" departLane="random" />
	<vehicle id="v12134" depart="72.97" route="sr30636" type="CarDefault" departLane="random" />
	<vehicle id="v13130" depart="74.13" route="sr30637" type="CarDefault" departLane="random" />
	<vehicle id="v13131" depart="77.35" route="sr30637" type="CarDefault" departLane="random" />
	<vehicle id="v11313" depart="79.41" route="sr30635" type="CarDefault" departLane="random" />
	<vehicle id="v13132" depart="80.57" route="sr30637" type="CarDefault" departLane="random" />
	<vehicle id="v12135" depart="81.08" route="sr30636" type="CarDefault" departLane="random" />
	<vehicle id="v13133" depart="83.8" route="sr30637" type="CarDefault" departLane="random" />
	<vehicle id="v13017" depart="85" route="sr30637" type="CarDefault" departLane="random" />
	<vehicle id="v13134" depart="87.02" route="sr30637" type="CarDefault" departLane="random" />
	<vehicle id="v11314" depart="88.24" route="sr30635" type="CarDefault" departLane="random" />
	<vehicle id="v12136" depart="89.19" route="sr30636" type="CarDefault" departLane="random" />
	<vehicle id="v13135" depart="90.24" route="sr30637" type="CarDefault" departLane="random" />
	<vehicle id="v13136" depart="93.46" route="sr30637" type="CarDefault" departLane="random" />
	<vehicle id="v13137" depart="96.69" route="sr30637" type="CarDefault" departLane="random" />
	<vehicle id="v11315" depart="97.06" route="sr30635" type="CarDefault" departLane="random" />
	<vehicle id="v12137" depart="97.3" route="sr30636" type="CarDefault" departLane="random" />
	<vehicle id="v13138" depart="99.91" route="sr30637" type="CarDefault" departLane="random" />
	<vehicle id="v13018" depart="100" route="sr30637" type="CarDefault" departLane="random" />
	<vehicle id="v13139" depart="103.13" route="sr30637" type="CarDefault" departLane="random" />
	<vehicle id="v12138" depart="105.41" route="sr30636" type="CarDefault" departLane="random" />
	<vehicle id="v11316" depart="105.88" route="sr30635" type="CarDefault" departLane="random" />
	<vehicle id="v13140" depart="106.36" route="sr30637" type="CarDefault" departLane="random" />
	<vehicle id="v13141" depart="109.58" route="sr30637" type="CarDefault" departLane="random" />
	<vehicle id="v13142" depart="112.8" route="sr30637" type="CarDefault" departLane="random" />
	<vehicle id="v12139" depart="113.51" route="sr30636" type="CarDefault" departLane="random" />
	<vehicle id="v11317" depart="114.71" route="sr30635" type="CarDefault" departLane="random" />
	<vehicle id="v13143" depart="116.03" route="sr30637" type="CarDefault" departLane="random" />
	<vehicle id="v13144" depart="119.25" route="sr30637" type="CarDefault" departLane="random" />
	<vehicle id="v12140" depart="121.62" route="sr30636" type="CarDefault" departLane="random" />
	<vehicle id="v13145" depart="122.47" route="sr30637" type="CarDefault" departLane="random" />
	<vehicle id="v11318" depart="123.53" route="sr30635" type="CarDefault" departLane="random" />
	<vehicle id="v13146" depart="125.69" route="sr30637" type="CarDefault" departLane="random" />
	<vehicle id="v13147" depart="128.92" route="sr30637" type="CarDefault" departLane="random" />
	<vehicle id="v12141" depart="129.73" route="sr30636" type="CarDefault" departLane="random" />
	<vehicle id="v13148" depart="132.14" route="sr30637" type="CarDefault" departLane="random" />
	<vehicle id="v11319" depart="132.35" route="sr30635" type="CarDefault" departLane="random" />
	<vehicle id="v13149" depart="135.36" route="sr30637" type="CarDefault" departLane="random" />
	<vehicle id="v12142" depart="137.84" route="sr30636" type="CarDefault" departLane="random" />
	<vehicle id="v13150" depart="138.59" route="sr30637" type="CarDefault" departLane="random" />
	<vehicle id="v11320" depart="141.18" route="sr30635" type="CarDefault" departLane="random" />
	<vehicle id="v13151" depart="141.81" route="sr30637" type="CarDefault" departLane="random" />
	<vehicle id="v13019" depart="143" route="sr30637" type="CarDefault" departLane="random" />
	<vehicle id="v13152" depart="145.03" route="sr30637" type="CarDefault" departLane="random" />
	<vehicle id="v12143" depart="145.95" route="sr30636" type="CarDefault" departLane="random" />
	<vehicle id="v13153" depart="148.25" route="sr30637" type="CarDefault" departLane="random" />
	<vehicle id="v11321" depart="150.0" route="sr30635" type="CarDefault" departLane="random" />
	<vehicle id="v13154" depart="151.48" route="sr30637" type="CarDefault" departLane="random" />
	<vehicle id="v12144" depart="154.05" route="sr30636" type="CarDefault" departLane="random" />
	<vehicle id="v13155" depart="154.7" route="sr30637" type="CarDefault" departLane="random" />
	<vehicle id="v13156" depart="157.92" route="sr30637" type="CarDefault" departLane="random" />
	<vehicle id="v11322" depart="158.82" route="sr30635" type="CarDefault" departLane="random" />
	<vehicle id="v13157" depart="161.15" route="sr30637" type="CarDefault" departLane="random" />
	<vehicle id="v12145" depart="162.16" route="sr30636" type="CarDefault" departLane="random" />
	<vehicle id="v13158" depart="164.37" route="sr30637" type="CarDefault" departLane="random" />
	<vehicle id="v13159" depart="167.59" route="sr30637" type="CarDefault" departLane="random" />
	<vehicle id="v11323" depart="167.65" route="sr30635" type="CarDefault" departLane="random" />
	<vehicle id="v12146" depart="170.27" route="sr30636" type="CarDefault" departLane="random" />
	<vehicle id="v13160" depart="170.81" route="sr30637" type="CarDefault" departLane="random" />
	<vehicle id="v13161" depart="174.04" route="sr30637" type="CarDefault" departLane="random" />
	<vehicle id="v13020" depart="175" route="sr30637" type="CarDefault" departLane="random" />
	<vehicle id="v11324" depart="176.47" route="sr30635" type="CarDefault" departLane="random" />
	<vehicle id="v13162" depart="177.26" route="sr30637" type="CarDefault" departLane="random" />
	<vehicle id="v12147" depart="178.38" route="sr30636" type="CarDefault" departLane="random" />
	<vehicle id="v13163" depart="180.48" route="sr30637" type="CarDefault" departLane="random" />
	<vehicle id="v13164" depart="183.71" route="sr30637" type="CarDefault" departLane="random" />
	<vehicle id="v11325" depart="185.29" route="sr30635" type="CarDefault" departLane="random" />
	<vehicle id="v12148" depart="186.49" route="sr30636" type="CarDefault" departLane="random" />
	<vehicle id="v13165" depart="186.93" route="sr30637" type="CarDefault" departLane="random" />
	<vehicle id="v13166" depart="190.15" route="sr30637" type="CarDefault" departLane="random" />
	<vehicle id="v13167" depart="193.38" route="sr30637" type="CarDefault" departLane="random" />
	<vehicle id="v13021" depart="194" route="sr30637" type="CarDefault" departLane="random" />
	<vehicle id="v11326" depart="194.12" route="sr30635" type="CarDefault" departLane="random" />
	<vehicle id="v12149" depart="194.59" route="sr30636" type="CarDefault" departLane="random" />
	<vehicle id="v13168" depart="196.6" route="sr30637" type="CarDefault" departLane="random" />
	<vehicle id="v13169" depart="199.82" route="sr30637" type="CarDefault" departLane="random" />
	<vehicle id="v13022" depart="202" route="sr30637" type="CarDefault" departLane="random" />
	<vehicle id="v12150" depart="202.7" route="sr30636" type="CarDefault" departLane="random" />
	<vehicle id="v11327" depart="202.94" route="sr30635" type="CarDefault" departLane="random" />
	<vehicle id="v13170" depart="203.04" route="sr30637" type="CarDefault" departLane="random" />
	<vehicle id="v13171" depart="206.27" route="sr30637" type="CarDefault" departLane="random" />
	<vehicle id="v13172" depart="209.49" route="sr30637" type="CarDefault" departLane="random" />
	<vehicle id="v12151" depart="210.81" route="sr30636" type="CarDefault" departLane="random" />
	<vehicle id="v11328" depart="211.76" route="sr30635" type="CarDefault" departLane="random" />
	<vehicle id="v13173" depart="212.71" route="sr30637" type="CarDefault" departLane="random" />
	<vehicle id="v13174" depart="215.94" route="sr30637" type="CarDefault" departLane="random" />
	<vehicle id="v12152" depart="218.92" route="sr30636" type="CarDefault" departLane="random" />
	<vehicle id="v13175" depart="219.16" route="sr30637" type="CarDefault" departLane="random" />
	<vehicle id="v11329" depart="220.59" route="sr30635" type="CarDefault" departLane="random" />
	<vehicle id="v13176" depart="222.38" route="sr30637" type="CarDefault" departLane="random" />
	<vehicle id="v13177" depart="225.6" route="sr30637" type="CarDefault" departLane="random" />
	<vehicle id="v12153" depart="227.03" route="sr30636" type="CarDefault" departLane="random" />
	<vehicle id="v13178" depart="228.83" route="sr30637" type="CarDefault" departLane="random" />
	<vehicle id="v11330" depart="229.41" route="sr30635" type="CarDefault" departLane="random" />
	<vehicle id="v13179" depart="232.05" route="sr30637" type="CarDefault" departLane="random" />
	<vehicle id="v12154" depart="235.14" route="sr30636" type="CarDefault" departLane="random" />
	<vehicle id="v13180" depart="235.27" route="sr30637" type="CarDefault" departLane="random" />
	<vehicle id="v11331" depart="238.24" route="sr30635" type="CarDefault" departLane="random" />
	<vehicle id="v13181" depart="238.5" route="sr30637" type="CarDefault" departLane="random" />
	<vehicle id="v13182" depart="241.72" route="sr30637" type="CarDefault" departLane="random" />
	<vehicle id="v12155" depart="243.24" route="sr30636" type="CarDefault" departLane="random" />
	<vehicle id="v13183" depart="244.94" route="sr30637" type="CarDefault" departLane="random" />
	<vehicle id="v11332" depart="247.06" route="sr30635" type="CarDefault" departLane="random" />
	<vehicle id="v13184" depart="248.16" route="sr30637" type="CarDefault" departLane="random" />
	<vehicle id="v12156" depart="251.35" route="sr30636" type="CarDefault" departLane="random" />
	<vehicle id="v13185" depart="251.39" route="sr30637" type="CarDefault" departLane="random" />
	<vehicle id="v13186" depart="254.61" route="sr30637" type="CarDefault" departLane="random" />
	<vehicle id="v11333" depart="255.88" route="sr30635" type="CarDefault" departLane="random" />
	<vehicle id="v13187" depart="257.83" route="sr30637" type="CarDefault" departLane="random" />
	<vehicle id="v12157" depart="259.46" route="sr30636" type="CarDefault" departLane="random" />
	<vehicle id="v13188" depart="261.06" route="sr30637" type="CarDefault" departLane="random" />
	<vehicle id="v13189" depart="264.28" route="sr30637" type="CarDefault" departLane="random" />
	<vehicle id="v11334" depart="264.71" route="sr30635" type="CarDefault" departLane="random" />
	<vehicle id="v13190" depart="267.5" route="sr30637" type="CarDefault" departLane="random" />
	<vehicle id="v12158" depart="267.57" route="sr30636" type="CarDefault" departLane="random" />
	<vehicle id="v13191" depart="270.73" route="sr30637" type="CarDefault" departLane="random" />
	<vehicle id="v11335" depart="273.53" route="sr30635" type="CarDefault" departLane="random" />
	<vehicle id="v13192" depart="273.95" route="sr30637" type="CarDefault" departLane="random" />
	<vehicle id="v12159" depart="275.68" route="sr30636" type="CarDefault" departLane="random" />
	<vehicle id="v13193" depart="277.17" route="sr30637" type="CarDefault" departLane="random" />
	<vehicle id="v13023" depart="279" route="sr30637" type="CarDefault" departLane="random" />
	<vehicle id="v13194" depart="280.39" route="sr30637" type="CarDefault" departLane="random" />
	<vehicle id="v11336" depart="282.35" route="sr30635" type="CarDefault" departLane="random" />
	<vehicle id="v13195" depart="283.62" route="sr30637" type="CarDefault" departLane="random" />
	<vehicle id="v12160" depart="283.78" route="sr30636" type="CarDefault" departLane="random" />
	<vehicle id="v13196" depart="286.84" route="sr30637" type="CarDefault" departLane="random" />
	<vehicle id="v13197" depart="290.06" route="sr30637" type="CarDefault" departLane="random" />
	<vehicle id="v11337" depart="291.18" route="sr30635" type="CarDefault" departLane="random" />
	<vehicle id="v12161" depart="291.89" route="sr30636" type="CarDefault" departLane="random" />
	<vehicle id="v13198" depart="293.29" route="sr30637" type="CarDefault" departLane="random" />
	<vehicle id="v13199" depart="296.51" route="sr30637" type="CarDefault" departLane="random" />
	<vehicle id="v13200" depart="299.73" route="sr30637" type="CarDefault" departLane="random" />
	<vehicle id="v11338" depart="300.0" route="sr30635" type="CarDefault" departLane="random" />
	<vehicle id="v12162" depart="300.0" route="sr30636" type="CarDefault" departLane="random" />
	<vehicle id="v13201" depart="302.95" route="sr30637" type="CarDefault" departLane="random" />
	<vehicle id="v13202" depart="306.18" route="sr30637" type="CarDefault" departLane="random" />
	<vehicle id="v12163" depart="308.11" route="sr30636" type="CarDefault" departLane="random" />
	<vehicle id="v11339" depart="308.82" route="sr30635" type="CarDefault" departLane="random" />
	<vehicle id="v13203" depart="309.4" route="sr30637" type="CarDefault" departLane="random" />
	<vehicle id="v13204" depart="312.62" route="sr30637" type="CarDefault" departLane="random" />
	<vehicle id="v13205" depart="315.85" route="sr30637" type="CarDefault" departLane="random" />
	<vehicle id="v12164" depart="316.22" route="sr30636" type="CarDefault" departLane="random" />
	<vehicle id="v11340" depart="317.65" route="sr30635" type="CarDefault" departLane="random" />
	<vehicle id="v13206" depart="319.07" route="sr30637" type="CarDefault" departLane="random" />
	<vehicle id="v13207" depart="322.29" route="sr30637" type="CarDefault" departLane="random" />
	<vehicle id="v12165" depart="324.32" route="sr30636" type="CarDefault" departLane="random" />
	<vehicle id="v13208" depart="325.51" route="sr30637" type="CarDefault" departLane="random" />
	<vehicle id="v11341" depart="326.47" route="sr30635" type="CarDefault" departLane="random" />
	<vehicle id="v13209" depart="328.74" route="sr30637" type="CarDefault" departLane="random" />
	<vehicle id="v13210" depart="331.96" route="sr30637" type="CarDefault" departLane="random" />
	<vehicle id="v12166" depart="332.43" route="sr30636" type="CarDefault" departLane="random" />
	<vehicle id="v13211" depart="335.18" route="sr30637" type="CarDefault" departLane="random" />
	<vehicle id="v11342" depart="335.29" route="sr30635" type="CarDefault" departLane="random" />
	<vehicle id="v13024" depart="336" route="sr30637" type="CarDefault" departLane="random" />
	<vehicle id="v13212" depart="338.41" route="sr30637" type="CarDefault" departLane="random" />
	<vehicle id="v12167" depart="340.54" route="sr30636" type="CarDefault" departLane="random" />
	<vehicle id="v13213" depart="341.63" route="sr30637" type="CarDefault" departLane="random" />
	<vehicle id="v11343" depart="344.12" route="sr30635" type="CarDefault" departLane="random" />
	<vehicle id="v13214" depart="344.85" route="sr30637" type="CarDefault" departLane="random" />
	<vehicle id="v13215" depart="348.08" route="sr30637" type="CarDefault" departLane="random" />
	<vehicle id="v12168" depart="348.65" route="sr30636" type="CarDefault" departLane="random" />
	<vehicle id="v13216" depart="351.3" route="sr30637" type="CarDefault" departLane="random" />
	<vehicle id="v11344" depart="352.94" route="sr30635" type="CarDefault" departLane="random" />
	<vehicle id="v13217" depart="354.52" route="sr30637" type="CarDefault" departLane="random" />
	<vehicle id="v12169" depart="356.76" route="sr30636" type="CarDefault" departLane="random" />
	<vehicle id="v13218" depart="357.74" route="sr30637" type="CarDefault" departLane="random" />
	<vehicle id="v13219" depart="360.97" route="sr30637" type="CarDefault" departLane="random" />
	<vehicle id="v11345" depart="361.76" route="sr30635" type="CarDefault" departLane="random" />
	<vehicle id="v13220" depart="364.19" route="sr30637" type="CarDefault" departLane="random" />
	<vehicle id="v12170" depart="364.86" route="sr30636" type="CarDefault" departLane="random" />
	<vehicle id="v13221" depart="367.41" route="sr30637" type="CarDefault" departLane="random" />
	<vehicle id="v11346" depart="370.59" route="sr30635" type="CarDefault" departLane="random" />
	<vehicle id="v13222" depart="370.64" route="sr30637" type="CarDefault" departLane="random" />
	<vehicle id="v12171" depart="372.97" route="sr30636" type="CarDefault" departLane="random" />
	<vehicle id="v13223" depart="373.86" route="sr30637" type="CarDefault" departLane="random" />
	<vehicle id="v13224" depart="377.08" route="sr30637" type="CarDefault" departLane="random" />
	<vehicle id="v11347" depart="379.41" route="sr30635" type="CarDefault" departLane="random" />
	<vehicle id="v13225" depart="380.3" route="sr30637" type="CarDefault" departLane="random" />
	<vehicle id="v12172" depart="381.08" route="sr30636" type="CarDefault" departLane="random" />
	<vehicle id="v13226" depart="383.53" route="sr30637" type="CarDefault" departLane="random" />
	<vehicle id="v13227" depart="386.75" route="sr30637" type="CarDefault" departLane="random" />
	<vehicle id="v11348" depart="388.24" route="sr30635" type="CarDefault" departLane="random" />
	<vehicle id="v12173" depart="389.19" route="sr30636" type="CarDefault" departLane="random" />
	<vehicle id="v13228" depart="389.97" route="sr30637" type="CarDefault" departLane="random" />
	<vehicle id="v13229" depart="393.2" route="sr30637" type="CarDefault" departLane="random" />
	<vehicle id="v13230" depart="396.42" route="sr30637" type="CarDefault" departLane="random" />
	<vehicle id="v11349" depart="397.06" route="sr30635" type="CarDefault" departLane="random" />
	<vehicle id="v12174" depart="397.3" route="sr30636" type="CarDefault" departLane="random" />
	<vehicle id="v13231" depart="399.64" route="sr30637" type="CarDefault" departLane="random" />
	<vehicle id="v13025" depart="400" route="sr30637" type="CarDefault" departLane="random" />
	<vehicle id="v13232" depart="402.86" route="sr30637" type="CarDefault" departLane="random" />
	<vehicle id="v12175" depart="405.41" route="sr30636" type="CarDefault" departLane="random" />
	<vehicle id="v11350" depart="405.88" route="sr30635" type="CarDefault" departLane="random" />
	<vehicle id="v13233" depart="406.09" route="sr30637" type="CarDefault" departLane="random" />
	<vehicle id="v13234" depart="409.31" route="sr30637" type="CarDefault" departLane="random" />
	<vehicle id="v13235" depart="412.53" route="sr30637" type="CarDefault" departLane="random" />
	<vehicle id="v12176" depart="413.51" route="sr30636" type="CarDefault" departLane="random" />
	<vehicle id="v11351" depart="414.71" route="sr30635" type="CarDefault" departLane="random" />
	<vehicle id="v13236" depart="415.76" route="sr30637" type="CarDefault" departLane="random" />
	<vehicle id="v13237" depart="418.98" route="sr30637" type="CarDefault" departLane="random" />
	<vehicle id="v12177" depart="421.62" route="sr30636" type="CarDefault" departLane="random" />
	<vehicle id="v13238" depart="422.2" route="sr30637" type="CarDefault" departLane="random" />
	<vehicle id="v11352" depart="423.53" route="sr30635" type="CarDefault" departLane="random" />
	<vehicle id="v13239" depart="425.43" route="sr30637" type="CarDefault" departLane="random" />
	<vehicle id="v13240" depart="428.65" route="sr30637" type="CarDefault" departLane="random" />
	<vehicle id="v12178" depart="429.73" route="sr30636" type="CarDefault" departLane="random" />
	<vehicle id="v13241" depart="431.87" route="sr30637" type="CarDefault" departLane="random" />
	<vehicle id="v11353" depart="432.35" route="sr30635" type="CarDefault" departLane="random" />
	<vehicle id="v13242" depart="435.09" route="sr30637" type="CarDefault" departLane="random" />
	<vehicle id="v12179" depart="437.84" route="sr30636" type="CarDefault" departLane="random" />
	<vehicle id="v13243" depart="438.32" route="sr30637" type="CarDefault" departLane="random" />
	<vehicle id="v11354" depart="441.18" route="sr30635" type="CarDefault" departLane="random" />
	<vehicle id="v13244" depart="441.54" route="sr30637" type="CarDefault" departLane="random" />
	<vehicle id="v13026" depart="442" route="sr30637" type="CarDefault" departLane="random" />
	<vehicle id="v13245" depart="444.76" route="sr30637" type="CarDefault" departLane="random" />
	<vehicle id="v12180" depart="445.95" route="sr30636" type="CarDefault" departLane="random" />
	<vehicle id="v13246" depart="447.99" route="sr30637" type="CarDefault" departLane="random" />
	<vehicle id="v11355" depart="450.0" route="sr30635" type="CarDefault" departLane="random" />
	<vehicle id="v13247" depart="451.21" route="sr30637" type="CarDefault" departLane="random" />
	<vehicle id="v12181" depart="454.05" route="sr30636" type="CarDefault" departLane="random" />
	<vehicle id="v13248" depart="454.43" route="sr30637" type="CarDefault" departLane="random" />
	<vehicle id="v13249" depart="457.65" route="sr30637" type="CarDefault" departLane="random" />
	<vehicle id="v11356" depart="458.82" route="sr30635" type="CarDefault" departLane="random" />
	<vehicle id="v13250" depart="460.88" route="sr30637" type="CarDefault" departLane="random" />
	<vehicle id="v12182" depart="462.16" route="sr30636" type="CarDefault" departLane="random" />
	<vehicle id="v13251" depart="464.1" route="sr30637" type="CarDefault" departLane="random" />
	<vehicle id="v13252" depart="467.32" route="sr30637" type="CarDefault" departLane="random" />
	<vehicle id="v11357" depart="467.65" route="sr30635" type="CarDefault" departLane="random" />
	<vehicle id="v12183" depart="470.27" route="sr30636" type="CarDefault" departLane="random" />
	<vehicle id="v13253" depart="470.55" route="sr30637" type="CarDefault" departLane="random" />
	<vehicle id="v13254" depart="473.77" route="sr30637" type="CarDefault" departLane="random" />
	<vehicle id="v11358" depart="476.47" route="sr30635" type="CarDefault" departLane="random" />
	<vehicle id="v13255" depart="476.99" route="sr30637" type="CarDefault" departLane="random" />
	<vehicle id="v12184" depart="478.38" route="sr30636" type="CarDefault" departLane="random" />
	<vehicle id="v13256" depart="480.21" route="sr30637" type="CarDefault" departLane="random" />
	<vehicle id="v13257" depart="483.44" route="sr30637" type="CarDefault" departLane="random" />
	<vehicle id="v11359" depart="485.29" route="sr30635" type="CarDefault" departLane="random" />
	<vehicle id="v12185" depart="486.49" route="sr30636" type="CarDefault" departLane="random" />
	<vehicle id="v13258" depart="486.66" route="sr30637" type="CarDefault" departLane="random" />
	<vehicle id="v13259" depart="489.88" route="sr30637" type="CarDefault" departLane="random" />
	<vehicle id="v13260" depart="493.11" route="sr30637" type="CarDefault" departLane="random" />
	<vehicle id="v11360" depart="494.12" route="sr30635" type="CarDefault" departLane="random" />
	<vehicle id="v12186" depart="494.59" route="sr30636" type="CarDefault" departLane="random" />
	<vehicle id="v13261" depart="496.33" route="sr30637" type="CarDefault" departLane="random" />
	<vehicle id="v13262" depart="499.55" route="sr30637" type="CarDefault" departLane="random" />
	<vehicle id="v12187" depart="502.7" route="sr30636" type="CarDefault" departLane="random" />
	<vehicle id="v13263" depart="502.78" route="sr30637" type="CarDefault" departLane="random" />
	<vehicle id="v11361" depart="502.94" route="sr30635" type="CarDefault" departLane="random" />
	<vehicle id="v13264" depart="506.0" route="sr30637" type="CarDefault" departLane="random" />
	<vehicle id="v13265" depart="509.22" route="sr30637" type="CarDefault" departLane="random" />
	<vehicle id="v12188" depart="510.81" route="sr30636" type="CarDefault" departLane="random" />
	<vehicle id="v11362" depart="511.76" route="sr30635" type="CarDefault" departLane="random" />
	<vehicle id="v13266" depart="512.44" route="sr30637" type="CarDefault" departLane="random" />
	<vehicle id="v13267" depart="515.67" route="sr30637" type="CarDefault" departLane="random" />
	<vehicle id="v13268" depart="518.89" route="sr30637" type="CarDefault" departLane="random" />
	<vehicle id="v12189" depart="518.92" route="sr30636" type="CarDefault" departLane="random" />
	<vehicle id="v11363" depart="520.59" route="sr30635" type="CarDefault" departLane="random" />
	<vehicle id="v13269" depart="522.11" route="sr30637" type="CarDefault" departLane="random" />
	<vehicle id="v13270" depart="525.34" route="sr30637" type="CarDefault" departLane="random" />
	<vehicle id="v12190" depart="527.03" route="sr30636" type="CarDefault" departLane="random" />
	<vehicle id="v13271" depart="528.56" route="sr30637" type="CarDefault" departLane="random" />
	<vehicle id="v11364" depart="529.41" route="sr30635" type="CarDefault" departLane="random" />
	<vehicle id="v13272" depart="531.78" route="sr30637" type="CarDefault" departLane="random" />
	<vehicle id="v13273" depart="535.0" route="sr30637" type="CarDefault" departLane="random" />
	<vehicle id="v12191" depart="535.14" route="sr30636" type="CarDefault" departLane="random" />
	<vehicle id="v13274" depart="538.23" route="sr30637" type="CarDefault" departLane="random" />
	<vehicle id="v11365" depart="538.24" route="sr30635" type="CarDefault" departLane="random" />
	<vehicle id="v13275" depart="541.45" route="sr30637" type="CarDefault" departLane="random" />
	<vehicle id="v12192" depart="543.24" route="sr30636" type="CarDefault" departLane="random" />