<?xml version='1.0' encoding='utf-8'?>
<routes>
	<vType accel="3.0" decel="6.0" id="CarDefault" length="5.0" minGap="2.5" maxSpeed="50.0" sigma="0.5" />
	<route id="sr654" edges="278 93 92 415 650 623 624 625 356 616 585 586 641 357 622 556 626 591 398 541 542 578 391 34 33 229 220 3 2 224 223 306 543 544 350 602 370 371 372 373 445" fromJunction="246" toJunction="139" />
	<route id="sr655" edges="604 605 579 580 306 543 544 350 602 76 75 72 71 74 73 59 68 192 191 190 189 188 69 70 272 347 287 632 365 366 603 353 354 239 447 448 23 58 38" fromJunction="226" toJunction="68" />
	<route id="sr656" edges="611 612 425 358 359 360 410 411 441 442 443 444 438 439 440 329 559 560 561 541 542 578 391 85 84 250 249 396" fromJunction="227" toJunction="295" />
	<vehicle id="v0" depart="0.0" route="sr654" type="CarDefault" departLane="random" />
	<vehicle id="v850" depart="0.0" route="sr655" type="CarDefault" departLane="random" />
	<vehicle id="v1717" depart="0.0" route="sr656" type="CarDefault" departLane="random" />
	<vehicle id="v1718" depart="4.64" route="sr656" type="CarDefault" departLane="random" />
	<vehicle id="v851" depart="4.66" route="sr655" type="CarDefault" departLane="random" />
	<vehicle id="v1623" depart="6" route="sr656" type="CarDefault" departLane="random" />
	<vehicle id="v1719" depart="9.28" route="sr656" type="CarDefault" departLane="random" />
	<vehicle id="v852" depart="9.33" route="sr655" type="CarDefault" departLane="random" />
	<vehicle id="v1" depart="9.52" route="sr654" type="CarDefault" departLane="random" />
	<vehicle id="v1720" depart="13.92" route="sr656" type="CarDefault" departLane="random" />
	<vehicle id="v853" depart="13.99" route="sr655" type="CarDefault" departLane="random" />
	<vehicle id="v1721" depart="18.56" route="sr656" type="CarDefault" departLane="random" />
	<vehicle id="v854" depart="18.65" route="sr655" type="CarDefault" departLane="random" />
	<vehicle id="v2" depart="19.05" route="sr654" type="CarDefault" departLane="random" />
	<vehicle id="v1722" depart="23.2" route="sr656" type="CarDefault" departLane="random" />
	<vehicle id="v855" depart="23.32" route="sr655" type="CarDefault" departLane="random" />
	<vehicle id="v1624" depart="27" route="sr656" type="CarDefault" departLane="random" />
	<vehicle id="v1723" depart="27.84" route="sr656" type="CarDefault" departLane="random" />
	<vehicle id="v856" depart="27.98" route="sr655" type="CarDefault" departLane="random" />
	<vehicle id="v3" depart="28.57" route="sr654" type="CarDefault" departLane="random" />
	<vehicle id="v1724" depart="32.47" route="sr656" type="CarDefault" departLane="random" />
	<vehicle id="v857" depart="32.64" route="sr655" type="CarDefault" departLane="random" />
	<vehicle id="v1725" depart="37.11" route="sr656" type="CarDefault" departLane="random" />
	<vehicle id="v858" depart="37.31" route="sr655" type="CarDefault" departLane="random" />
	<vehicle id="v4" depart="38.1" route="sr654" type="CarDefault" departLane="random" />
	<vehicle id="v1726" depart="41.75" route="sr656" type="CarDefault" departLane="random" />
	<vehicle id="v859" depart="41.97" route="sr655" type="CarDefault" departLane="random" />
	<vehicle id="v1625" depart="43" route="sr656" type="CarDefault" departLane="random" />
	<vehicle id="v1727" depart="46.39" route="sr656" type="CarDefault" departLane="random" />
	<vehicle id="v860" depart="46.63" route="sr655" type="CarDefault" departLane="random" />
	<vehicle id="v5" depart="47.62" route="sr654" type="CarDefault" departLane="random" />
	<vehicle id="v1728" depart="51.03" route="sr656" type="CarDefault" departLane="random" />
	<vehicle id="v861" depart="51.3" route="sr655" type="CarDefault" departLane="random" />
	<vehicle id="v1729" depart="55.67" route="sr656" type="CarDefault" departLane="random" />
	<vehicle id="v862" depart="55.96" route="sr655" type="CarDefault" departLane="random" />
	<vehicle id="v6" depart="57.14" route="sr654" type="CarDefault" departLane="random" />
	<vehicle id="v1730" depart="60.31" route="sr656" type="CarDefault" departLane="random" />
	<vehicle id="v863" depart="60.62" route="sr655" type="CarDefault" departLane="random" />
	<vehicle id="v1731" depart="64.95" route="sr656" type="CarDefault" departLane="random" />
	<vehicle id="v864" depart="65.28" route="sr655" type="CarDefault" departLane="random" />
	<vehicle id="v7" depart="66.67" route="sr654" type="CarDefault" departLane="random" />
	<vehicle id="v1732" depart="69.59" route="sr656" type="CarDefault" departLane="random" />
	<vehicle id="v865" depart="69.95" route="sr655" type="CarDefault" departLane="random" />
	<vehicle id="v1626" depart="73" route="sr656" type="CarDefault" departLane="random" />
	<vehicle id="v1733" depart="74.23" route="sr656" type="CarDefault" departLane="random" />
	<vehicle id="v866" depart="74.61" route="sr655" type="CarDefault" departLane="random" />
	<vehicle id="v8" depart="76.19" route="sr654" type="CarDefault" departLane="random" />
	<vehicle id="v1734" depart="78.87" route="sr656" type="CarDefault" departLane="random" />
	<vehicle id="v867" depart="79.27" route="sr655" type="CarDefault" departLane="random" />
	<vehicle id="v1627" depart="81" route="sr656" type="CarDefault" departLane="random" />
	<vehicle id="v1735" depart="83.51" route="sr656" type="CarDefault" departLane="random" />
	<vehicle id="v868" depart="83.94" route="sr655" type="CarDefault" departLane="random" />
	<vehicle id="v9" depart="85.71" route="sr654" type="CarDefault" departLane="random" />
	<vehicle id="v1736" depart="88.14" route="sr656" type="CarDefault" departLane="random" />
	<vehicle id="v869" depart="88.6" route="sr655" type="CarDefault" departLane="random" />
	<vehicle id="v1737" depart="92.78" route="sr656" type="CarDefault" departLane="random" />
	<vehicle id="v870" depart="93.26" route="sr655" type="CarDefault" departLane="random" />
	<vehicle id="v10" depart="95.24" route="sr654" type="CarDefault" departLane="random" />
	<vehicle id="v1738" depart="97.42" route="sr656" type="CarDefault" departLane="random" />
	<vehicle id="v871" depart="97.93" route="sr655" type="CarDefault" departLane="random" />
	<vehicle id="v761" depart="99" route="sr655" type="CarDefault" departLane="random" />
	<vehicle id="v1739" depart="102.06" route="sr656" type="CarDefault" departLane="random" />
	<vehicle id="v872" depart="102.59" route="sr655" type="CarDefault" departLane="random" />
	<vehicle id="v762" depart="103" route="sr655" type="CarDefault" departLane="random" />
	<vehicle id="v11" depart="104.76" route="sr654" type="CarDefault" departLane="random" />
	<vehicle id="v1740" depart="106.7" route="sr656" type="CarDefault" departLane="random" />
	<vehicle id="v873" depart="107.25" route="sr655" type="CarDefault" departLane="random" />
	<vehicle id="v1741" depart="111.34" route="sr656" type="CarDefault" departLane="random" />
	<vehicle id="v874" depart="111.92" route="sr655" type="CarDefault" departLane="random" />
	<vehicle id="v1628" depart="113" route="sr656" type="CarDefault" departLane="random" />
	<vehicle id="v12" depart="114.29" route="sr654" type="CarDefault" departLane="random" />
	<vehicle id="v1742" depart="115.98" route="sr656" type="CarDefault" departLane="random" />
	<vehicle id="v875" depart="116.58" route="sr655" type="CarDefault" departLane="random" />
	<vehicle id="v1743" depart="120.62" route="sr656" type="CarDefault" departLane="random" />
	<vehicle id="v876" depart="121.24" route="sr655" type="CarDefault" departLane="random" />
	<vehicle id="v13" depart="123.81" route="sr654" type="CarDefault" departLane="random" />
	<vehicle id="v1744" depart="125.26" route="sr656" type="CarDefault" departLane="random" />
	<vehicle id="v877" depart="125.91" route="sr655" type="CarDefault" departLane="random" />
	<vehicle id="v1745" depart="129.9" route="sr656" type="CarDefault" departLane="random" />
	<vehicle id="v878" depart="130.57" route="sr655" type="CarDefault" departLane="random" />
	<vehicle id="v1629" depart="132" route="sr656" type="CarDefault" departLane="random" />
	<vehicle id="v14" depart="133.33" route="sr654" type="CarDefault" departLane="random" />
	<vehicle id="v1746" depart="134.54" route="sr656" type="CarDefault" departLane="random" />
	<vehicle id="v879" depart="135.23" route="sr655" type="CarDefault" departLane="random" />
	<vehicle id="v1747" depart="139.18" route="sr656" type="CarDefault" departLane="random" />
	<vehicle id="v880" depart="139.9" route="sr655" type="CarDefault" departLane="random" />
	<vehicle id="v15" depart="142.86" route="sr654" type="CarDefault" departLane="random" />
	<vehicle id="v1748" depart="143.81" route="sr656" type="CarDefault" departLane="random" />
	<vehicle id="v881" depart="144.56" route="sr655" type="CarDefault" departLane="random" />
	<vehicle id="v1630" depart="148" route="sr656" type="CarDefault" departLane="random" />
	<vehicle id="v1749" depart="148.45" route="sr656" type="CarDefault" departLane="random" />
	<vehicle id="v882" depart="149.22" route="sr655" type="CarDefault" departLane="random" />
	<vehicle id="v16" depart="152.38" route="sr654" type="CarDefault" departLane="random" />
	<vehicle id="v1750" depart="153.09" route="sr656" type="CarDefault" departLane="random" />
	<vehicle id="v883" depart="153.89" route="sr655" type="CarDefault" departLane="random" />
	<vehicle id="v1751" depart="157.73" route="sr656" type="CarDefault" departLane="random" />
	<vehicle id="v884" depart="158.55" route="sr655" type="CarDefault" departLane="random" />
	<vehicle id="v17" depart="161.9" route="sr654" type="CarDefault" departLane="random" />
	<vehicle id="v1752" depart="162.37" route="sr656" type="CarDefault" departLane="random" />
	<vehicle id="v885" depart="163.21" route="sr655" type="CarDefault" departLane="random" />
	<vehicle id="v1631" depart="165" route="sr656" type="CarDefault" departLane="random" />
	<vehicle id="v1753" depart="167.01" route="sr656" type="CarDefault" departLane="random" />
	<vehicle id="v886" depart="167.88" route="sr655" type="CarDefault" departLane="random" />
	<vehicle id="v18" depart="171.43" route="sr654" type="CarDefault" departLane="random" />
	<vehicle id="v1754" depart="171.65" route="sr656" type="CarDefault" departLane="random" />
	<vehicle id="v887" depart="172.54" route="sr655" type="CarDefault" departLane="random" />
	<vehicle id="v1755" depart="176.29" route="sr656" type="CarDefault" departLane="random" />
	<vehicle id="v888" depart="177.2" route="sr655" type="CarDefault" departLane="random" />
	<vehicle id="v1756" depart="180.93" route="sr656" type="CarDefault" departLane="random" />
	<vehicle id="v19" depart="180.95" route="sr654" type="CarDefault" departLane="random" />
	<vehicle id="v889" depart="181.87" route="sr655" type="CarDefault" departLane="random" />
	<vehicle id="v1757" depart="185.57" route="sr656" type="CarDefault" departLane="random" />
	<vehicle id="v890" depart="186.53" route="sr655" type="CarDefault" departLane="random" />
	<vehicle id="v1758" depart="190.21" route="sr656" type="CarDefault" departLane="random" />
	<vehicle id="v20" depart="190.48" route="sr654" type="CarDefault" departLane="random" />
	<vehicle id="v891" depart="191.19" route="sr655" type="CarDefault" departLane="random" />
	<vehicle id="v1759" depart="194.85" route="sr656" type="CarDefault" departLane="random" />
	<vehicle id="v892" depart="195.85" route="sr655" type="CarDefault" departLane="random" />
	<vehicle id="v1760" depart="199.48" route="sr656" type="CarDefault" departLane="random" />
	<vehicle id="v21" depart="200.0" route="sr654" type="CarDefault" departLane="random" />
	<vehicle id="v893" depart="200.52" route="sr655" type="CarDefault" departLane="random" />
	<vehicle id="v1761" depart="204.12" route="sr656" type="CarDefault" departLane="random" />
	<vehicle id="v894" depart="205.18" route="sr655" type="CarDefault" departLane="random" />
	<vehicle id="v1762" depart="208.76" route="sr656" type="CarDefault" departLane="random" />
	<vehicle id="v22" depart="209.52" route="sr654" type="CarDefault" departLane="random" />
	<vehicle id="v895" depart="209.84" route="sr655" type="CarDefault" departLane="random" />
	<vehicle id="v1763" depart="213.4" route="sr656" type="CarDefault" departLane="random" />
	<vehicle id="v896" depart="214.51" route="sr655" type="CarDefault" departLane="random" />
	<vehicle id="v1632" depart="218" route="sr656" type="CarDefault" departLane="random" />
	<vehicle id="v1764" depart="218.04" route="sr656" type="CarDefault" departLane="random" />
	<vehicle id="v23" depart="219.05" route="sr654" type="CarDefault" departLane="random" />
	<vehicle id="v897" depart="219.17" route="sr655" type="CarDefault" departLane="random" />
	<vehicle id="v1765" depart="222.68" route="sr656" type="CarDefault" departLane="random" />
	<vehicle id="v898" depart="223.83" route="sr655" type="CarDefault" departLane="random" />
	<vehicle id="v1766" depart="227.32" route="sr656" type="CarDefault" departLane="random" />
	<vehicle id="v899" depart="228.5" route="sr655" type="CarDefault" departLane="random" />
	<vehicle id="v24" depart="228.57" route="sr654" type="CarDefault" departLane="random" />
	<vehicle id="v1633" depart="230" route="sr656" type="CarDefault" departLane="random" />
	<vehicle id="v1767" depart="231.96" route="sr656" type="CarDefault" departLane="random" />
	<vehicle id="v900" depart="233.16" route="sr655" type="CarDefault" departLane="random" />
	<vehicle id="v1768" depart="236.6" route="sr656" type="CarDefault" departLane="random" />
	<vehicle id="v901" depart="237.82" route="sr655" type="CarDefault" departLane="random" />
	<vehicle id="v25" depart="238.1" route="sr654" type="CarDefault" departLane="random" />
	<vehicle id="v763" depart="239" route="sr655" type="CarDefault" departLane="random" />
	<vehicle id="v1769" depart="241.24" route="sr656" type="CarDefault" departLane="random" />
	<vehicle id="v902" depart="242.49" route="sr655" type="CarDefault" departLane="random" />
	<vehicle id="v1770" depart="245.88" route="sr656" type="CarDefault" departLane="random" />
	<vehicle id="v903" depart="247.15" route="sr655" type="CarDefault" departLane="random" />
	<vehicle id="v26" depart="247.62" route="sr654" type="CarDefault" departLane="random" />
	<vehicle id="v1771" depart="250.52" route="sr656" type="CarDefault" departLane="random" />
	<vehicle id="v904" depart="251.81" route="sr655" type="CarDefault" departLane="random" />
	<vehicle id="v764" depart="252" route="sr655" type="CarDefault" departLane="random" />
	<vehicle id="v1772" depart="255.15" route="sr656" type="CarDefault" departLane="random" />
	<vehicle id="v905" depart="256.48" route="sr655" type="CarDefault" departLane="random" />
	<vehicle id="v27" depart="257.14" route="sr654" type="CarDefault" departLane="random" />
	<vehicle id="v1773" depart="259.79" route="sr656" type="CarDefault" departLane="random" />
	<vehicle id="v906" depart="261.14" route="sr655" type="CarDefault" departLane="random" />
	<vehicle id="v1774" depart="264.43" route="sr656" type="CarDefault" departLane="random" />
	<vehicle id="v907" depart="265.8" route="sr655" type="CarDefault" departLane="random" />
	<vehicle id="v28" depart="266.67" route="sr654" type="CarDefault" departLane="random" />
	<vehicle id="v1775" depart="269.07" route="sr656" type="CarDefault" departLane="random" />
	<vehicle id="v908" depart="270.47" route="sr655" type="CarDefault" departLane="random" />
	<vehicle id="v1776" depart="273.71" route="sr656" type="CarDefault" departLane="random" />
	<vehicle id="v1634" depart="274" route="sr656" type="CarDefault" departLane="random" />
	<vehicle id="v765" depart="275" route="sr655" type="CarDefault" departLane="random" />
	<vehicle id="v909" depart="275.13" route="sr655" type="CarDefault" departLane="random" />
	<vehicle id="v29" depart="276.19" route="sr654" type="CarDefault" departLane="random" />
	<vehicle id="v1777" depart="278.35" route="sr656" type="CarDefault" departLane="random" />
	<vehicle id="v910" depart="279.79" route="sr655" type="CarDefault" departLane="random" />
	<vehicle id="v766" depart="280" route="sr655" type="CarDefault" departLane="random" />
	<vehicle id="v1778" depart="282.99" route="sr656" type="CarDefault" departLane="random" />
	<vehicle id="v911" depart="284.46" route="sr655" type="CarDefault" departLane="random" />
	<vehicle id="v30" depart="285.71" route="sr654" type="CarDefault" departLane="random" />
	<vehicle id="v1779" depart="287.63" route="sr656" type="CarDefault" departLane="random" />
	<vehicle id="v912" depart="289.12" route="sr655" type="CarDefault" departLane="random" />
	<vehicle id="v1780" depart="292.27" route="sr656" type="CarDefault" departLane="random" />
	<vehicle id="v913" depart="293.78" route="sr655" type="CarDefault" departLane="random" />
	<vehicle id="v31" depart="295.24" route="sr654" type="CarDefault" departLane="random" />
	<vehicle id="v1781" depart="296.91" route="sr656" type="CarDefault" departLane="random" />
	<vehicle id="v914" depart="298.45" route="sr655" type="CarDefault" departLane="random" />
	<vehicle id="v1782" depart="301.55" route="sr656" type="CarDefault" departLane="random" />
	<vehicle id="v915" depart="303.11" route="sr655" type="CarDefault" departLane="random" />
	<vehicle id="v32" depart="304.76" route="sr654" type="CarDefault" departLane="random" />
	<vehicle id="v1783" depart="306.19" route="sr656" type="CarDefault" departLane="random" />
	<vehicle id="v916" depart="307.77" route="sr655" type="CarDefault" departLane="random" />
	<vehicle id="v1635" depart="308" route="sr656" type="CarDefault" departLane="random" />
	<vehicle id="v1784" depart="310.82" route="sr656" type="CarDefault" departLane="random" />
	<vehicle id="v917" depart="312.44" route="sr655" type="CarDefault" departLane="random" />
	<vehicle id="v33" depart="314.29" route="sr654" type="CarDefault" departLane="random" />
	<vehicle id="v1785" depart="315.46" route="sr656" type="CarDefault" departLane="random" />
	<vehicle id="v767" depart="316" route="sr655" type="CarDefault" departLane="random" />
	<vehicle id="v918" depart="317.1" route="sr655" type="CarDefault" departLane="random" />
	<vehicle id="v1786" depart="320.1" route="sr656" type="CarDefault" departLane="random" />
	<vehicle id="v919" depart="321.76" route="sr655" type="CarDefault" departLane="random" />
	<vehicle id="v34" depart="323.81" route="sr654" type="CarDefault" departLane="random" />
	<vehicle id="v1787" depart="324.74" route="sr656" type="CarDefault" departLane="random" />
	<vehicle id="v920" depart="326.42" route="sr655" type="CarDefault" departLane="random" />
	<vehicle id="v1788" depart="329.38" route="sr656" type="CarDefault" departLane="random" />
	<vehicle id="v1636" depart="330" route="sr656" type="CarDefault" departLane="random" />
	<vehicle id="v921" depart="331.09" route="sr655" type="CarDefault" departLane="random" />
	<vehicle id="v35" depart="333.33" route="sr654" type="CarDefault" departLane="random" />
	<vehicle id="v1789" depart="334.02" route="sr656" type="CarDefault" departLane="random" />
	<vehicle id="v922" depart="335.75" route="sr655" type="CarDefault" departLane="random" />
	<vehicle id="v1790" depart="338.66" route="sr656" type="CarDefault" departLane="random" />
	<vehicle id="v923" depart="340.41" route="sr655" type="CarDefault" departLane="random" />
	<vehicle id="v36" depart="342.86" route="sr654" type="CarDefault" departLane="random" />
	<vehicle id="v1791" depart="343.3" route="sr656" type="CarDefault" departLane="random" />
	<vehicle id="v924" depart="345.08" route="sr655" type="CarDefault" departLane="random" />
	<vehicle id="v1792" depart="347.94" route="sr656" type="CarDefault" departLane="random" />
	<vehicle id="v925" depart="349.74" route="sr655" type="CarDefault" departLane="random" />
	<vehicle id="v37" depart="352.38" route="sr654" type="CarDefault" departLane="random" />
	<vehicle id="v1793" depart="352.58" route="sr656" type="CarDefault" departLane="random" />
	<vehicle id="v926" depart="354.4" route="sr655" type="CarDefault" departLane="random" />
	<vehicle id="v1637" depart="355" route="sr656" type="CarDefault" departLane="random" />
	<vehicle id="v768" depart="356" route="sr655" type="CarDefault" departLane="random" />
	<vehicle id="v1794" depart="357.22" route="sr656" type="CarDefault" departLane="random" />
	<vehicle id="v927" depart="359.07" route="sr655" type="CarDefault" departLane="random" />
	<vehicle id="v1795" depart="361.86" route="sr656" type="CarDefault" departLane="random" />
	<vehicle id="v38" depart="361.9" route="sr654" type="CarDefault" departLane="random" />
	<vehicle id="v1638" depart="363" route="sr656" type="CarDefault" departLane="random" />
	<vehicle id="v928" depart="363.73" route="sr655" type="CarDefault" departLane="random" />
	<vehicle id="v1796" depart="366.49" route="sr656" type="CarDefault" departLane="random" />
	<vehicle id="v929" depart="368.39" route="sr655" type="CarDefault" departLane="random" />
	<vehicle id="v1797" depart="371.13" route="sr656" type="CarDefault" departLane="random" />
	<vehicle id="v39" depart="371.43" route="sr654" type="CarDefault" departLane="random" />
	<vehicle id="v930" depart="373.06" route="sr655" type="CarDefault" departLane="random" />
	<vehicle id="v769" depart="375" route="sr655" type="CarDefault" departLane="random" />
	<vehicle id="v1798" depart="375.77" route="sr656" type="CarDefault" departLane="random" />
	<vehicle id="v931" depart="377.72" route="sr655" type="CarDefault" departLane="random" />
	<vehicle id="v1799" depart="380.41" route="sr656" type="CarDefault" departLane="random" />
	<vehicle id="v40" depart="380.95" route="sr654" type="CarDefault" departLane="random" />
	<vehicle id="v932" depart="382.38" route="sr655" type="CarDefault" departLane="random" />
	<vehicle id="v1800" depart="385.05" route="sr656" type="CarDefault" departLane="random" />
	<vehicle id="v933" depart="387.05" route="sr655" type="CarDefault" departLane="random" />
	<vehicle id="v1801" depart="389.69" route="sr656" type="CarDefault" departLane="random" />
	<vehicle id="v41" depart="390.48" route="sr654" type="CarDefault" departLane="random" />
	<vehicle id="v1639" depart="391" route="sr656" type="CarDefault" departLane="random" />
	<vehicle id="v934" depart="391.71" route="sr655" type="CarDefault" departLane="random" />
	<vehicle id="v1802" depart="394.33" route="sr656" type="CarDefault" departLane="random" />
	<vehicle id="v935" depart="396.37" route="sr655" type="CarDefault" departLane="random" />
	<vehicle id="v1803" depart="398.97" route="sr656" type="CarDefault" departLane="random" />
	<vehicle id="v770" depart="399" route="sr655" type="CarDefault" departLane="random" />
	<vehicle id="v42" depart="400.0" route="sr654" type="CarDefault" departLane="random" />
	<vehicle id="v936" depart="401.04" route="sr655" type="CarDefault" departLane="random" />
	<vehicle id="v1804" depart="403.61" route="sr656" type="CarDefault" departLane="random" />
	<vehicle id="v937" depart="405.7" route="sr655" type="CarDefault" departLane="random" />
	<vehicle id="v1805" depart="408.25" route="sr656" type="CarDefault" departLane="random" />
	<vehicle id="v43" depart="409.52" route="sr654" type="CarDefault" departLane="random" />
	<vehicle id="v938" depart="410.36" route="sr655" type="CarDefault" departLane="random" />
	<vehicle id="v1806" depart="412.89" route="sr656" type="CarDefault" departLane="random" />
	<vehicle id="v771" depart="414" route="sr655" type="CarDefault" departLane="random" />
	<vehicle id="v939" depart="415.03" route="sr655" type="CarDefault" departLane="random" />
	<vehicle id="v1640" depart="417" route="sr656" type="CarDefault" departLane="random" />
	<vehicle id="v1807" depart="417.53" route="sr656" type="CarDefault" departLane="random" />
	<vehicle id="v44" depart="419.05" route="sr654" type="CarDefault" departLane="random" />
	<vehicle id="v940" depart="419.69" route="sr655" type="CarDefault" departLane="random" />
	<vehicle id="v1808" depart="422.16" route="sr656" type="CarDefault" departLane="random" />
	<vehicle id="v941" depart="424.35" route="sr655" type="CarDefault" departLane="random" />
	<vehicle id="v1809" depart="426.8" route="sr656" type="CarDefault" departLane="random" />
	<vehicle id="v772" depart="428" route="sr655" type="CarDefault" departLane="random" />
	<vehicle id="v45" depart="428.57" route="sr654" type="CarDefault" departLane="random" />
	<vehicle id="v942" depart="429.02" route="sr655" type="CarDefault" departLane="random" />
	<vehicle id="v1810" depart="431.44" route="sr656" type="CarDefault" departLane="random" />
	<vehicle id="v943" depart="433.68" route="sr655" type="CarDefault" departLane="random" />
	<vehicle id="v1811" depart="436.08" route="sr656" type="CarDefault" departLane="random" />
	<vehicle id="v46" depart="438.1" route="sr654" type="CarDefault" departLane="random" />
	<vehicle id="v944" depart="438.34" route="sr655" type="CarDefault" departLane="random" />
	<vehicle id="v1812" depart="440.72" route="sr656" type="CarDefault" departLane="random" />
	<vehicle id="v945" depart="443.01" route="sr655" type="CarDefault" departLane="random" />
	<vehicle id="v1813" depart="445.36" route="sr656" type="CarDefault" departLane="random" />
	<vehicle id="v47" depart="447.62" route="sr654" type="CarDefault" departLane="random" />
	<vehicle id="v946" depart="447.67" route="sr655" type="CarDefault" departLane="random" />
	<vehicle id="v1814" depart="450.0" route="sr656" type="CarDefault" departLane="random" />
	<vehicle id="v947" depart="452.33" route="sr655" type="CarDefault" departLane="random" />
	<vehicle id="v1815" depart="454.64" route="sr656" type="CarDefault" departLane="random" />
	<vehicle id="v773" depart="456" route="sr655" type="CarDefault" departLane="random" />
	<vehicle id="v948" depart="456.99" route="sr655" type="CarDefault" departLane="random" />
	<vehicle id="v48" depart="457.14" route="sr654" type="CarDefault" departLane="random" />
	<vehicle id="v1816" depart="459.28" route="sr656" type="CarDefault" departLane="random" />
	<vehicle id="v949" depart="461.66" route="sr655" type="CarDefault" departLane="random" />
	<vehicle id="v1817" depart="463.92" route="sr656" type="CarDefault" departLane="random" />
	<vehicle id="v950" depart="466.32" route="sr655" type="CarDefault" departLane="random" />
	<vehicle id="v49" depart="466.67" route="sr654" type="CarDefault" departLane="random" />
	<vehicle id="v1818" depart="468.56" route="sr656" type="CarDefault" departLane="random" />
	<vehicle id="v951" depart="470.98" route="sr655" type="CarDefault" departLane="random" />
	<vehicle id="v1819" depart="473.2" route="sr656" type="CarDefault" departLane="random" />
	<vehicle id="v952" depart="475.65" route="sr655" type="CarDefault" departLane="random" />
	<vehicle id="v50" depart="476.19" route="sr654" type="CarDefault" departLane="random" />
	<vehicle id="v1820" depart="477.84" route="sr656" type="CarDefault" departLane="random" />
	<vehicle id="v953" depart="480.31" route="sr655" type="CarDefault" departLane="random" />
	<vehicle id="v1821" depart="482.47" route="sr656" type="CarDefault" departLane="random" />
	<vehicle id="v954" depart="484.97" route="sr655" type="CarDefault" departLane="random" />
	<vehicle id="v51" depart="485.71" route="sr654" type="CarDefault" departLane="random" />
	<vehicle id="v1822" depart="487.11" route="sr656" type="CarDefault" departLane="random" />
	<vehicle id="v955" depart="489.64" route="sr655" type="CarDefault" departLane="random" />
	<vehicle id="v1823" depart="491.75" route="sr656" type="CarDefault" departLane="random" />
	<vehicle id="v1641" depart="494" route="sr656" type="CarDefault" departLane="random" />
	<vehicle id="v956" depart="494.3" route="sr655" type="CarDefault" departLane="random" />
	<vehicle id="v52" depart="495.24" route="sr654" type="CarDefault" departLane="random" />
	<vehicle id="v1824" depart="496.39" route="sr656" type="CarDefault" departLane="random" />
	<vehicle id="v957" depart="498.96" route="sr655" type="CarDefault" departLane="random" />
	<vehicle id="v1825" depart="501.03" route="sr656" type="CarDefault" departLane="random" />
	<vehicle id="v958" depart="503.63" route="sr655" type="CarDefault" departLane="random" />
	<vehicle id="v53" depart="504.76" route="sr654" type="CarDefault" departLane="random" />
	<vehicle id="v1826" depart="505.67" route="sr656" type="CarDefault" departLane="random" />
	<vehicle id="v959" depart="508.29" route="sr655" type="CarDefault" departLane="random" />
	<vehicle id="v1827" depart="510.31" route="sr656" type="CarDefault" departLane="random" />
	<vehicle id="v960" depart="512.95" route="sr655" type="CarDefault" departLane="random" />
	<vehicle id="v54" depart="514.29" route="sr654" type="CarDefault" departLane="random" />
	<vehicle id="v1828" depart="514.95" route="sr656" type="CarDefault" departLane="random" />
	<vehicle id="v961" depart="517.62" route="sr655" type="CarDefault" departLane="random" />
	<vehicle id="v1829" depart="519.59" route="sr656" type="CarDefault" departLane="random" />
	<vehicle id="v962" depart="522.28" route="sr655" type="CarDefault" departLane="random" />
	<vehicle id="v55" depart="523.81" route="sr654" type="CarDefault" departLane="random" />
	<vehicle id="v1830" depart="524.23" route="sr656" type="CarDefault" departLane="random" />
	<vehicle id="v963" depart="526.94" route="sr655" type="CarDefault" departLane="random" />
	<vehicle id="v1831" depart="528.87" route="sr656" type="CarDefault" departLane="random" />
	<vehicle id="v964" depart="531.61" route="sr655" type="CarDefault" departLane="random" />
	<vehicle id="v56" depart="533.33" route="sr654" type="CarDefault" departLane="random" />
	<vehicle id="v1832" depart="533.51" route="sr656" type="CarDefault" departLane="random" />
	<vehicle id="v965" depart="536.27" route="sr655" type="CarDefault" departLane="random" />
	<vehicle id="v1833" depart="538.14" route="sr656" type="CarDefault" departLane="random" />