<?xml version='1.0' encoding='utf-8'?>
<net xmlns:xsi="http://www.w3.org/2001/XMLSchema-instance" version="1.9" junctionCornerDetail="5" limitTurnSpeed="5.50" xsi:noNamespaceSchemaLocation="http://sumo.dlr.de/xsd/net_file.xsd">
	<location netOffset="-700187.91,-5711400.31" convBoundary="10.97,221.47,1781.75,1641.90" origBoundary="-0.115477,51.518028,-0.086294,51.533349" projParameter="+proj=utm +zone=30 +ellps=WGS84 +datum=WGS84 +units=m +no_defs" />
	<subgraphs>
		<subgraph id="sg0" from_junction="227" to_junction="295" edges="567,596,308,294,292,495,375,149,268,10,346,30,482,233,345,43,414,416,114,391,336,577,232,598,591,551,406,473,417,310,282,295,132,600,622,173,496,156,320,395,167,556,322,566,443,486,376,339,44,234,570,500,338,572,446,492,565,441,514,560,159,546,342,501,138,150,593,553,594,493,408,484,151,250,548,557,608,481,361,412,176,28,475,525,131,442,472,309,359,430,413,360,554,563,592,626,510,130,27,584,407,506,168,429,447,321,542,340,379,612,499,347,558,571,561,337,559,425,152,444,550,134,343,589,341,88,291,545,396,293,564,440,562,148,541,62,377,470,61,552,249,286,147,244,595,87,511,45,611,245,512,549,394,96,438,283,610,25,23,172,85,154,411,532,348,509,155,171,621,398,146,583,629,129,601,84,315,67,7,578,31,97,494,448,597,555,489,410,599,323,319,487,609,358,478,380,507,86,633,385,515,483,497,588,474,285,269,329,635,284,439,26,471,424,642,166,535,29,145" />
		<subgraph id="sg1" from_junction="246" to_junction="139" edges="205,308,637,375,149,268,357,33,346,34,92,345,43,416,114,391,48,551,602,477,600,173,320,650,556,356,572,338,446,565,514,199,159,625,480,150,201,543,481,55,28,131,442,12,318,592,510,119,466,429,106,347,208,229,93,343,589,341,224,623,544,293,541,62,370,586,126,198,9,383,552,147,595,382,511,45,394,369,438,610,172,348,509,398,583,146,621,629,2,118,315,601,7,578,316,97,57,494,489,217,36,54,445,306,478,334,483,497,588,269,616,329,641,635,439,26,465,471,642,29,567,596,495,638,0,170,30,482,537,314,373,123,336,598,591,103,3,473,310,132,101,622,479,47,395,566,443,486,376,339,44,371,500,317,441,278,560,56,342,501,593,553,594,484,151,548,608,378,209,176,475,472,309,430,626,563,554,476,130,584,27,200,321,450,542,117,379,340,153,499,455,561,415,518,559,337,624,152,444,550,177,452,564,562,148,440,248,377,202,470,144,61,286,585,244,451,197,245,46,512,549,96,203,110,171,449,129,67,31,597,555,599,319,279,487,609,350,380,507,385,633,515,112,381,474,220,459,8,204,372,164,11,145,223" />
		<subgraph id="sg2" from_junction="243" to_junction="68" edges="205,226,272,294,183,213,0,10,268,170,42,537,43,414,239,603,123,391,48,103,406,38,295,101,600,173,47,395,167,276,194,122,111,44,570,500,354,236,199,514,258,56,463,501,260,408,235,201,280,196,237,608,481,361,209,55,523,365,12,120,257,510,119,407,200,50,506,243,366,168,252,447,466,344,117,193,542,24,106,41,58,499,347,208,571,455,518,607,287,312,177,88,353,225,423,195,541,248,126,202,632,364,198,9,70,286,244,87,51,45,242,511,49,521,197,46,241,89,512,245,522,394,96,369,212,23,203,110,348,227,121,141,629,118,52,7,578,97,57,448,217,36,54,599,530,102,279,259,507,86,334,515,240,112,1,635,459,271,231,8,204,166,311,535,335,11" />
	</subgraphs>
	<type id="highway.bridleway" priority="1" numLanes="1" speed="2.78" allow="pedestrian" oneway="1" width="2.00" />
	<type id="highway.bus_guideway" priority="1" numLanes="1" speed="27.78" allow="bus" oneway="1" />
	<type id="highway.cycleway" priority="1" numLanes="1" speed="8.33" allow="bicycle" oneway="1" width="1.00" />
	<type id="highway.footway" priority="1" numLanes="1" speed="2.78" allow="pedestrian" oneway="1" width="2.00" />
	<type id="highway.ford" priority="1" numLanes="1" speed="2.78" allow="army" oneway="1" />
	<type id="highway.living_street" priority="2" numLanes="1" speed="2.78" disallow="tram rail_urban rail rail_electric rail_fast ship" oneway="1" />
	<type id="highway.motorway" priority="14" numLanes="2" speed="39.44" allow="private emergency authority army vip passenger hov taxi bus coach delivery truck trailer motorcycle evehicle custom1 custom2" oneway="1" />
	<type id="highway.motorway_link" priority="9" numLanes="1" speed="22.22" allow="private emergency authority army vip passenger hov taxi bus coach delivery truck trailer motorcycle evehicle custom1 custom2" oneway="1" />
	<type id="highway.path" priority="1" numLanes="1" speed="2.78" allow="pedestrian bicycle" oneway="1" width="2.00" />
	<type id="highway.pedestrian" priority="1" numLanes="1" speed="2.78" allow="pedestrian" oneway="1" width="2.00" />
	<type id="highway.primary" priority="12" numLanes="2" speed="27.78" disallow="tram rail_urban rail rail_electric rail_fast ship" oneway="1" />
	<type id="highway.primary_link" priority="7" numLanes="1" speed="22.22" disallow="tram rail_urban rail rail_electric rail_fast ship" oneway="1" />
	<type id="highway.raceway" priority="15" numLanes="2" speed="83.33" allow="vip" oneway="1" />
	<type id="highway.residential" priority="3" numLanes="1" speed="13.89" disallow="tram rail_urban rail rail_electric rail_fast ship" oneway="1" />
	<type id="highway.secondary" priority="11" numLanes="1" speed="27.78" disallow="tram rail_urban rail rail_electric rail_fast ship" oneway="1" />
	<type id="highway.secondary_link" priority="6" numLanes="1" speed="22.22" disallow="tram rail_urban rail rail_electric rail_fast ship" oneway="1" />
	<type id="highway.service" priority="1" numLanes="1" speed="5.56" allow="pedestrian delivery bicycle" oneway="1" />
	<type id="highway.stairs" priority="1" numLanes="1" speed="1.39" allow="pedestrian" oneway="1" width="2.00" />
	<type id="highway.step" priority="1" numLanes="1" speed="1.39" allow="pedestrian" oneway="1" width="2.00" />
	<type id="highway.steps" priority="1" numLanes="1" speed="1.39" allow="pedestrian" oneway="1" width="2.00" />
	<type id="highway.tertiary" priority="10" numLanes="1" speed="22.22" disallow="tram rail_urban rail rail_electric rail_fast ship" oneway="1" />
	<type id="highway.tertiary_link" priority="5" numLanes="1" speed="22.22" disallow="tram rail_urban rail rail_electric rail_fast ship" oneway="1" />
	<type id="highway.track" priority="1" numLanes="1" speed="5.56" allow="pedestrian motorcycle moped bicycle" oneway="1" />
	<type id="highway.trunk" priority="13" numLanes="2" speed="27.78" disallow="pedestrian bicycle tram rail_urban rail rail_electric rail_fast ship" oneway="1" />
	<type id="highway.trunk_link" priority="8" numLanes="1" speed="22.22" disallow="pedestrian bicycle tram rail_urban rail rail_electric rail_fast ship" oneway="1" />
	<type id="highway.unclassified" priority="4" numLanes="1" speed="13.89" disallow="tram rail_urban rail rail_electric rail_fast ship" oneway="1" />
	<type id="highway.unsurfaced" priority="1" numLanes="1" speed="8.33" disallow="tram rail_urban rail rail_electric rail_fast ship" oneway="1" />
	<type id="railway.highspeed" priority="21" numLanes="1" speed="69.44" allow="rail_fast" oneway="1" />
	<type id="railway.light_rail" priority="19" numLanes="1" speed="27.78" allow="rail_urban" oneway="1" />
	<type id="railway.preserved" priority="16" numLanes="1" speed="27.78" allow="rail" oneway="1" />
	<type id="railway.rail" priority="20" numLanes="1" speed="44.44" allow="rail" oneway="1" />
	<type id="railway.subway" priority="18" numLanes="1" speed="27.78" allow="rail_urban" oneway="1" />
	<type id="railway.tram" priority="17" numLanes="1" speed="13.89" allow="tram" oneway="1" />
	<edge id=":0_0" function="internal">
		<lane id=":0_0_0" index="0" disallow="tram rail_urban rail rail_electric rail_fast ship" speed="8.94" length="0.23" shape="1131.06,1309.98 1131.00,1310.20" />
	</edge>
	<edge id=":0_1" function="internal">
		<lane id=":0_1_0" index="0" disallow="tram rail_urban rail rail_electric rail_fast ship" speed="8.94" length="0.31" shape="1127.91,1309.38 1127.99,1309.08" />
	</edge>
	<edge id=":1_0" function="internal">
		<lane id=":1_0_0" index="0" disallow="tram rail_urban rail rail_electric rail_fast ship" speed="7.17" length="8.03" shape="875.88,1225.26 875.42,1227.03 875.61,1228.82 876.45,1230.65 877.96,1232.50" />
	</edge>
	<edge id=":1_1" function="internal">
		<lane id=":1_1_0" index="0" disallow="tram rail_urban rail rail_electric rail_fast ship" speed="8.94" length="9.46" shape="875.88,1225.26 874.74,1227.82 873.91,1229.57 872.91,1231.20 871.24,1233.45" />
	</edge>
	<edge id=":1_2" function="internal">
		<lane id=":1_2_0" index="0" disallow="tram rail_urban rail rail_electric rail_fast ship" speed="3.65" length="1.44" shape="875.88,1225.26 874.66,1226.02" />
	</edge>
	<edge id=":1_6" function="internal">
		<lane id=":1_6_0" index="0" disallow="tram rail_urban rail rail_electric rail_fast ship" speed="3.65" length="3.23" shape="874.66,1226.02 873.76,1226.06 873.20,1225.36 872.97,1223.94" />
	</edge>
	<edge id=":1_3" function="internal">
		<lane id=":1_3_0" index="0" disallow="tram rail_urban rail rail_electric rail_fast ship" speed="8.94" length="8.71" shape="868.71,1231.49 870.24,1229.42 871.16,1227.91 871.92,1226.30 872.97,1223.94" />
	</edge>
	<edge id=":1_4" function="internal">
		<lane id=":1_4_0" index="0" disallow="tram rail_urban rail rail_electric rail_fast ship" speed="6.77" length="2.58" shape="868.71,1231.49 870.65,1229.79" />
	</edge>
	<edge id=":1_5" function="internal">
		<lane id=":1_5_0" index="0" disallow="tram rail_urban rail rail_electric rail_fast ship" speed="3.65" length="1.44" shape="868.71,1231.49 870.08,1231.03" />
	</edge>
	<edge id=":1_7" function="internal">
		<lane id=":1_7_0" index="0" disallow="tram rail_urban rail rail_electric rail_fast ship" speed="6.77" length="8.29" shape="870.65,1229.79 872.84,1229.39 875.27,1230.29 877.96,1232.50" />
	</edge>
	<edge id=":1_8" function="internal">
		<lane id=":1_8_0" index="0" disallow="tram rail_urban rail rail_electric rail_fast ship" speed="3.65" length="3.23" shape="870.08,1231.03 870.95,1231.21 871.34,1232.01 871.24,1233.45" />
	</edge>
	<edge id=":10_0" function="internal">
		<lane id=":10_0_0" index="0" disallow="bicycle tram rail_urban rail rail_electric rail_fast ship" speed="6.58" length="9.14" shape="1026.85,1372.61 1026.40,1370.21 1026.86,1368.21 1028.22,1366.62 1030.49,1365.43" />
	</edge>
	<edge id=":10_1" function="internal">
		<lane id=":10_1_0" index="0" disallow="bicycle tram rail_urban rail rail_electric rail_fast ship" speed="13.41" length="11.07" shape="1018.93,1365.60 1029.39,1362.42" />
		<lane id=":10_1_1" index="1" disallow="bicycle tram rail_urban rail rail_electric rail_fast ship" speed="13.41" length="11.07" shape="1019.77,1368.69 1030.49,1365.43" />
	</edge>
	<edge id=":100_0" function="internal">
		<lane id=":100_0_0" index="0" disallow="tram rail_urban rail rail_electric rail_fast ship" speed="8.94" length="14.61" shape="925.92,1099.38 921.27,1113.22" />
	</edge>
	<edge id=":100_1" function="internal">
		<lane id=":100_1_0" index="0" disallow="tram rail_urban rail rail_electric rail_fast ship" speed="7.90" length="4.27" shape="925.92,1099.38 924.21,1102.97 923.98,1103.16" />
	</edge>
	<edge id=":100_2" function="internal">
		<lane id=":100_2_0" index="0" disallow="tram rail_urban rail rail_electric rail_fast ship" speed="3.65" length="1.44" shape="925.92,1099.38 924.80,1100.29" />
	</edge>
	<edge id=":100_9" function="internal">
		<lane id=":100_9_0" index="0" disallow="tram rail_urban rail rail_electric rail_fast ship" speed="7.90" length="10.14" shape="923.98,1103.16 921.76,1105.08 918.60,1105.70 914.71,1104.85" />
	</edge>
	<edge id=":100_10" function="internal">
		<lane id=":100_10_0" index="0" disallow="tram rail_urban rail rail_electric rail_fast ship" speed="3.65" length="3.23" shape="924.80,1100.29 923.92,1100.43 923.27,1099.81 922.87,1098.42" />
	</edge>
	<edge id=":100_3" function="internal">
		<lane id=":100_3_0" index="0" disallow="tram rail_urban rail rail_electric rail_fast ship" speed="6.39" length="9.04" shape="915.84,1101.85 918.28,1102.39 920.26,1102.00 921.79,1100.67 922.87,1098.42" />
	</edge>
	<edge id=":100_4" function="internal">
		<lane id=":100_4_0" index="0" disallow="tram rail_urban rail rail_electric rail_fast ship" speed="8.08" length="14.33" shape="915.84,1101.85 919.33,1103.75 921.39,1106.27 922.04,1109.43 921.27,1113.22" />
	</edge>
	<edge id=":100_5" function="internal">
		<lane id=":100_5_0" index="0" disallow="tram rail_urban rail rail_electric rail_fast ship" speed="3.65" length="4.67" shape="915.84,1101.85 916.68,1103.02 916.77,1103.91 916.12,1104.52 914.71,1104.85" />
	</edge>
	<edge id=":100_6" function="internal">
		<lane id=":100_6_0" index="0" disallow="tram rail_urban rail rail_electric rail_fast ship" speed="6.60" length="9.22" shape="918.26,1112.14 918.75,1109.72 918.32,1107.69 916.97,1106.07 914.71,1104.85" />
	</edge>
	<edge id=":100_7" function="internal">
		<lane id=":100_7_0" index="0" disallow="tram rail_urban rail rail_electric rail_fast ship" speed="8.94" length="14.47" shape="918.26,1112.14 922.87,1098.42" />
	</edge>
	<edge id=":100_8" function="internal">
		<lane id=":100_8_0" index="0" disallow="tram rail_urban rail rail_electric rail_fast ship" speed="3.65" length="1.44" shape="918.26,1112.14 919.42,1111.28" />
	</edge>
	<edge id=":100_11" function="internal">
		<lane id=":100_11_0" index="0" disallow="tram rail_urban rail rail_electric rail_fast ship" speed="3.65" length="3.23" shape="919.42,1111.28 920.31,1111.18 920.92,1111.82 921.27,1113.22" />
	</edge>
	<edge id=":101_0" function="internal">
		<lane id=":101_0_0" index="0" disallow="tram rail_urban rail rail_electric rail_fast ship" speed="8.94" length="15.98" shape="957.44,1001.08 956.53,1004.87 955.45,1008.81 954.28,1012.73 953.11,1016.45" />
	</edge>
	<edge id=":101_1" function="internal">
		<lane id=":101_1_0" index="0" disallow="tram rail_urban rail rail_electric rail_fast ship" speed="8.94" length="3.65" shape="957.44,1001.08 956.14,1004.21 955.97,1004.40" />
	</edge>
	<edge id=":101_2" function="internal">
		<lane id=":101_2_0" index="0" disallow="tram rail_urban rail rail_electric rail_fast ship" speed="3.65" length="1.44" shape="957.44,1001.08 956.41,1002.08" />
	</edge>
	<edge id=":101_9" function="internal">
		<lane id=":101_9_0" index="0" disallow="tram rail_urban rail rail_electric rail_fast ship" speed="8.94" length="12.47" shape="955.97,1004.40 953.71,1006.85 950.16,1009.02 945.48,1010.70" />
	</edge>
	<edge id=":101_10" function="internal">
		<lane id=":101_10_0" index="0" disallow="tram rail_urban rail rail_electric rail_fast ship" speed="3.65" length="3.23" shape="956.41,1002.08 955.54,1002.30 954.84,1001.74 954.32,1000.39" />
	</edge>
	<edge id=":101_3" function="internal">
		<lane id=":101_3_0" index="0" disallow="tram rail_urban rail rail_electric rail_fast ship" speed="8.94" length="12.65" shape="944.63,1007.61 948.47,1006.27 951.37,1004.62 953.31,1002.66 954.32,1000.39" />
	</edge>
	<edge id=":101_4" function="internal">
		<lane id=":101_4_0" index="0" disallow="tram rail_urban rail rail_electric rail_fast ship" speed="7.39" length="17.21" shape="944.63,1007.61 949.81,1006.89 952.95,1008.12 954.05,1011.31 953.11,1016.45" />
	</edge>
	<edge id=":101_5" function="internal">
		<lane id=":101_5_0" index="0" disallow="tram rail_urban rail rail_electric rail_fast ship" speed="3.65" length="4.67" shape="944.63,1007.61 946.00,1008.07 946.60,1008.73 946.43,1009.61 945.48,1010.70" />
	</edge>
	<edge id=":101_6" function="internal">
		<lane id=":101_6_0" index="0" disallow="tram rail_urban rail rail_electric rail_fast ship" speed="5.61" length="9.30" shape="950.07,1015.48 950.57,1012.70 949.98,1010.97 948.28,1010.31 945.48,1010.70" />
	</edge>
	<edge id=":101_7" function="internal">
		<lane id=":101_7_0" index="0" disallow="tram rail_urban rail rail_electric rail_fast ship" speed="8.94" length="15.68" shape="950.07,1015.48 951.22,1011.80 952.36,1007.98 953.42,1004.14 954.32,1000.39" />
	</edge>
	<edge id=":101_8" function="internal">
		<lane id=":101_8_0" index="0" disallow="tram rail_urban rail rail_electric rail_fast ship" speed="3.65" length="1.44" shape="950.07,1015.48 951.19,1014.58" />
	</edge>
	<edge id=":101_11" function="internal">
		<lane id=":101_11_0" index="0" disallow="tram rail_urban rail rail_electric rail_fast ship" speed="3.65" length="3.23" shape="951.19,1014.58 952.08,1014.44 952.72,1015.07 953.11,1016.45" />
	</edge>
	<edge id=":106_0" function="internal">
		<lane id=":106_0_0" index="0" disallow="tram rail_urban rail rail_electric rail_fast ship" speed="7.46" length="2.64" shape="298.79,959.37 298.01,959.36 297.48,959.27 296.98,959.06 296.30,958.67" />
	</edge>
	<edge id=":106_1" function="internal">
		<lane id=":106_1_0" index="0" disallow="tram rail_urban rail rail_electric rail_fast ship" speed="3.65" length="4.67" shape="298.79,959.37 297.59,958.57 297.19,957.77 297.60,956.97 298.80,956.17" />
	</edge>
	<edge id=":106_2" function="internal">
		<lane id=":106_2_0" index="0" disallow="tram rail_urban rail rail_electric rail_fast ship" speed="8.94" length="0.88" shape="297.97,955.94 298.19,956.07 298.36,956.14 298.54,956.17 298.80,956.17" />
	</edge>
	<edge id=":106_3" function="internal">
		<lane id=":106_3_0" index="0" disallow="tram rail_urban rail rail_electric rail_fast ship" speed="3.65" length="4.67" shape="297.97,955.94 298.58,957.25 298.50,958.14 297.75,958.61 296.30,958.67" />
	</edge>
	<edge id=":107_0" function="internal">
		<lane id=":107_0_0" index="0" disallow="tram rail_urban rail rail_electric rail_fast ship" speed="6.08" length="9.16" shape="242.31,915.98 239.93,914.94 238.64,913.44 238.46,911.47 239.38,909.03" />
	</edge>
	<edge id=":107_1" function="internal">
		<lane id=":107_1_0" index="0" disallow="tram rail_urban rail rail_electric rail_fast ship" speed="3.65" length="4.67" shape="242.31,915.98 241.37,914.89 241.19,914.01 241.79,913.35 243.16,912.89" />
	</edge>
	<edge id=":107_2" function="internal">
		<lane id=":107_2_0" index="0" disallow="tram rail_urban rail rail_electric rail_fast ship" speed="3.91" length="3.05" shape="242.18,910.58 241.88,911.39 241.94,912.05 242.36,912.55 243.16,912.89" />
	</edge>
	<edge id=":107_3" function="internal">
		<lane id=":107_3_0" index="0" disallow="tram rail_urban rail rail_electric rail_fast ship" speed="3.65" length="4.67" shape="242.18,910.58 240.90,911.24 240.01,911.21 239.50,910.47 239.38,909.03" />
	</edge>
	<edge id=":11_0" function="internal">
		<lane id=":11_0_0" index="0" disallow="tram rail_urban rail rail_electric rail_fast ship" speed="8.94" length="0.30" shape="285.77,1105.09 285.71,1105.16 285.67,1105.20 285.64,1105.26 285.59,1105.33" />
	</edge>
	<edge id=":11_1" function="internal">
		<lane id=":11_1_0" index="0" disallow="tram rail_urban rail rail_electric rail_fast ship" speed="3.65" length="4.67" shape="285.77,1105.09 284.37,1105.44 283.51,1105.20 283.18,1104.37 283.40,1102.94" />
	</edge>
	<edge id=":11_2" function="internal">
		<lane id=":11_2_0" index="0" disallow="tram rail_urban rail rail_electric rail_fast ship" speed="8.94" length="0.90" shape="282.86,1103.66 283.00,1103.44 283.10,1103.28 283.22,1103.14 283.40,1102.94" />
	</edge>
	<edge id=":11_3" function="internal">
		<lane id=":11_3_0" index="0" disallow="tram rail_urban rail rail_electric rail_fast ship" speed="3.65" length="4.67" shape="282.86,1103.66 284.17,1103.06 285.06,1103.13 285.53,1103.89 285.59,1105.33" />
	</edge>
	<edge id=":114_0" function="internal">
		<lane id=":114_0_0" index="0" disallow="tram rail_urban rail rail_electric rail_fast ship" speed="8.94" length="13.06" shape="433.11,1052.99 431.27,1049.67 429.87,1047.47 428.33,1045.36 426.02,1042.34" />
		<lane id=":114_0_1" index="1" disallow="tram rail_urban rail rail_electric rail_fast ship" speed="8.94" length="13.06" shape="435.93,1051.46 434.01,1048.02 432.57,1045.73 430.96,1043.55 428.57,1040.41" />
	</edge>
	<edge id=":114_2" function="internal">
		<lane id=":114_2_0" index="0" disallow="tram rail_urban rail rail_electric rail_fast ship" speed="8.94" length="2.46" shape="435.93,1051.46 435.44,1049.05" />
	</edge>
	<edge id=":114_3" function="internal">
		<lane id=":114_3_0" index="0" disallow="tram rail_urban rail rail_electric rail_fast ship" speed="3.65" length="1.44" shape="435.93,1051.46 436.06,1050.03" />
	</edge>
	<edge id=":114_11" function="internal">
		<lane id=":114_11_0" index="0" disallow="tram rail_urban rail rail_electric rail_fast ship" speed="8.94" length="13.70" shape="435.44,1049.05 435.01,1046.94 436.52,1043.25 438.63,1039.90 439.48,1036.41" />
	</edge>
	<edge id=":114_12" function="internal">
		<lane id=":114_12_0" index="0" disallow="tram rail_urban rail rail_electric rail_fast ship" speed="3.65" length="3.23" shape="436.06,1050.03 436.57,1049.30 437.47,1049.27 438.74,1049.94" />
	</edge>
	<edge id=":114_4" function="internal">
		<lane id=":114_4_0" index="0" disallow="tram rail_urban rail rail_electric rail_fast ship" speed="8.94" length="9.79" shape="442.90,1039.04 441.67,1041.95 441.03,1044.49 441.00,1046.64 441.56,1048.42" />
	</edge>
	<edge id=":114_5" function="internal">
		<lane id=":114_5_0" index="0" disallow="tram rail_urban rail rail_electric rail_fast ship" speed="7.97" length="19.10" shape="442.90,1039.04 439.73,1043.74 436.28,1045.53 432.56,1044.42 428.57,1040.41" />
	</edge>
	<edge id=":114_6" function="internal">
		<lane id=":114_6_0" index="0" disallow="tram rail_urban rail rail_electric rail_fast ship" speed="4.40" length="6.29" shape="442.90,1039.04 441.06,1039.66 439.87,1039.43 439.35,1038.35 439.48,1036.41" />
	</edge>
	<edge id=":114_7" function="internal">
		<lane id=":114_7_0" index="0" disallow="tram rail_urban rail rail_electric rail_fast ship" speed="5.62" length="11.55" shape="433.67,1036.55 436.57,1039.89 438.50,1040.97 439.47,1039.82 439.48,1036.41" />
	</edge>
	<edge id=":114_8" function="internal">
		<lane id=":114_8_0" index="0" disallow="tram rail_urban rail rail_electric rail_fast ship" speed="8.94" length="14.03" shape="433.67,1036.55 436.24,1039.92 437.96,1042.26 439.50,1044.72 441.56,1048.42" />
		<lane id=":114_8_1" index="1" disallow="tram rail_urban rail rail_electric rail_fast ship" speed="8.94" length="14.03" shape="431.12,1038.48 433.60,1041.73 435.26,1044.00 436.76,1046.37 438.74,1049.94" />
	</edge>
	<edge id=":114_10" function="internal">
		<lane id=":114_10_0" index="0" disallow="tram rail_urban rail rail_electric rail_fast ship" speed="3.65" length="1.44" shape="431.12,1038.48 431.21,1039.92" />
	</edge>
	<edge id=":114_13" function="internal">
		<lane id=":114_13_0" index="0" disallow="tram rail_urban rail rail_electric rail_fast ship" speed="3.65" length="3.23" shape="431.21,1039.92 430.81,1040.72 429.93,1040.88 428.57,1040.41" />
	</edge>
	<edge id=":117_0" function="internal">
		<lane id=":117_0_0" index="0" disallow="tram rail_urban rail rail_electric rail_fast ship" speed="8.94" length="0.19" shape="683.18,987.98 683.09,988.15" />
	</edge>
	<edge id=":117_1" function="internal">
		<lane id=":117_1_0" index="0" disallow="tram rail_urban rail rail_electric rail_fast ship" speed="3.65" length="2.34" shape="683.18,987.98 681.89,988.62 681.00,988.57" />
	</edge>
	<edge id=":117_4" function="internal">
		<lane id=":117_4_0" index="0" disallow="tram rail_urban rail rail_electric rail_fast ship" speed="3.65" length="2.34" shape="681.00,988.57 680.50,987.83 680.40,986.39" />
	</edge>
	<edge id=":117_2" function="internal">
		<lane id=":117_2_0" index="0" disallow="tram rail_urban rail rail_electric rail_fast ship" speed="8.94" length="0.30" shape="680.26,986.65 680.40,986.39" />
	</edge>
	<edge id=":117_3" function="internal">
		<lane id=":117_3_0" index="0" disallow="tram rail_urban rail rail_electric rail_fast ship" speed="3.65" length="2.34" shape="680.26,986.65 681.53,985.96 682.42,985.98" />
	</edge>
	<edge id=":117_5" function="internal">
		<lane id=":117_5_0" index="0" disallow="tram rail_urban rail rail_electric rail_fast ship" speed="3.65" length="2.34" shape="682.42,985.98 682.94,986.71 683.09,988.15" />
	</edge>
	<edge id=":12_0" function="internal">
		<lane id=":12_0_0" index="0" disallow="bicycle tram rail_urban rail rail_electric rail_fast ship" speed="7.61" length="10.56" shape="1130.36,1318.01 1132.33,1320.44 1134.46,1321.91 1136.76,1322.41 1139.21,1321.96" />
	</edge>
	<edge id=":12_1" function="internal">
		<lane id=":12_1_0" index="0" disallow="tram rail_urban rail rail_electric rail_fast ship" speed="3.65" length="4.68" shape="1130.36,1318.01 1130.41,1319.45 1129.98,1320.24 1129.10,1320.38 1127.75,1319.86" />
	</edge>
	<edge id=":12_2" function="internal">
		<lane id=":12_2_0" index="0" disallow="bicycle tram rail_urban rail rail_electric rail_fast ship" speed="6.14" length="9.18" shape="1125.51,1327.15 1127.74,1325.89 1128.86,1324.26 1128.86,1322.25 1127.75,1319.86" />
	</edge>
	<edge id=":12_3" function="internal">
		<lane id=":12_3_0" index="0" disallow="bicycle tram rail_urban rail rail_electric rail_fast ship" speed="13.41" length="14.62" shape="1125.51,1327.15 1139.21,1321.96" />
		<lane id=":12_3_1" index="1" disallow="bicycle tram rail_urban rail rail_electric rail_fast ship" speed="13.41" length="14.62" shape="1126.66,1330.14 1140.32,1324.96" />
	</edge>
	<edge id=":120_0" function="internal">
		<lane id=":120_0_0" index="0" disallow="tram rail_urban rail rail_electric rail_fast ship" speed="8.94" length="10.90" shape="865.04,787.73 874.88,792.41" />
	</edge>
	<edge id=":120_1" function="internal">
		<lane id=":120_1_0" index="0" disallow="tram rail_urban rail rail_electric rail_fast ship" speed="6.55" length="8.85" shape="867.47,794.98 868.85,793.02 870.54,791.94 872.55,791.73 874.88,792.41" />
	</edge>
	<edge id=":121_0" function="internal">
		<lane id=":121_0_0" index="0" disallow="tram rail_urban rail rail_electric rail_fast ship" speed="8.94" length="10.85" shape="781.48,732.88 783.38,735.32 784.59,737.33 785.86,739.28 787.95,741.55" />
	</edge>
	<edge id=":121_1" function="internal">
		<lane id=":121_1_0" index="0" disallow="tram rail_urban rail rail_electric rail_fast ship" speed="8.76" length="10.56" shape="781.48,732.88 782.87,734.94 783.56,737.29 783.55,739.92 782.85,742.83" />
	</edge>
	<edge id=":121_2" function="internal">
		<lane id=":121_2_0" index="0" disallow="tram rail_urban rail rail_electric rail_fast ship" speed="3.65" length="4.67" shape="781.48,732.88 781.69,734.30 781.36,735.14 780.50,735.38 779.10,735.02" />
	</edge>
	<edge id=":121_3" function="internal">
		<lane id=":121_3_0" index="0" disallow="tram rail_urban rail rail_electric rail_fast ship" speed="7.30" length="7.15" shape="779.82,741.79 780.34,739.75 780.39,737.94 779.97,736.36 779.10,735.02" />
	</edge>
	<edge id=":121_4" function="internal">
		<lane id=":121_4_0" index="0" disallow="tram rail_urban rail rail_electric rail_fast ship" speed="6.12" length="10.37" shape="779.82,741.79 781.09,739.57 782.87,738.79 785.15,739.45 787.95,741.55" />
	</edge>
	<edge id=":121_5" function="internal">
		<lane id=":121_5_0" index="0" disallow="tram rail_urban rail rail_electric rail_fast ship" speed="3.65" length="4.67" shape="779.82,741.79 780.97,740.92 781.86,740.80 782.48,741.44 782.85,742.83" />
	</edge>
	<edge id=":123_0" function="internal">
		<lane id=":123_0_0" index="0" disallow="tram rail_urban rail rail_electric rail_fast ship" speed="8.94" length="11.46" shape="945.12,957.16 934.43,953.03" />
	</edge>
	<edge id=":123_1" function="internal">
		<lane id=":123_1_0" index="0" disallow="tram rail_urban rail rail_electric rail_fast ship" speed="8.94" length="12.63" shape="945.12,957.16 942.66,955.29 941.61,952.65 941.00,949.53 939.88,946.19" />
	</edge>
	<edge id=":123_2" function="internal">
		<lane id=":123_2_0" index="0" disallow="tram rail_urban rail rail_electric rail_fast ship" speed="3.65" length="4.67" shape="945.12,957.16 944.31,955.97 944.23,955.08 944.90,954.49 946.31,954.19" />
	</edge>
	<edge id=":123_3" function="internal">
		<lane id=":123_3_0" index="0" disallow="tram rail_urban rail rail_electric rail_fast ship" speed="5.41" length="9.68" shape="935.57,950.04 938.74,950.90 940.52,950.54 940.90,948.98 939.88,946.19" />
	</edge>
	<edge id=":123_4" function="internal">
		<lane id=":123_4_0" index="0" disallow="tram rail_urban rail rail_electric rail_fast ship" speed="8.94" length="11.52" shape="935.57,950.04 946.31,954.19" />
	</edge>
	<edge id=":123_5" function="internal">
		<lane id=":123_5_0" index="0" disallow="tram rail_urban rail rail_electric rail_fast ship" speed="3.65" length="4.67" shape="935.57,950.04 936.41,951.21 936.50,952.10 935.84,952.71 934.43,953.03" />
	</edge>
	<edge id=":124_0" function="internal">
		<lane id=":124_0_0" index="0" disallow="tram rail_urban rail rail_electric rail_fast ship" speed="8.94" length="11.25" shape="1212.58,968.06 1209.53,978.89" />
	</edge>
	<edge id=":124_1" function="internal">
		<lane id=":124_1_0" index="0" disallow="tram rail_urban rail rail_electric rail_fast ship" speed="7.22" length="2.69" shape="1212.58,968.06 1211.42,970.33 1211.30,970.41" />
	</edge>
	<edge id=":124_2" function="internal">
		<lane id=":124_2_0" index="0" disallow="tram rail_urban rail rail_electric rail_fast ship" speed="3.65" length="1.44" shape="1212.58,968.06 1211.50,969.02" />
	</edge>
	<edge id=":124_6" function="internal">
		<lane id=":124_6_0" index="0" disallow="tram rail_urban rail rail_electric rail_fast ship" speed="7.22" length="9.04" shape="1211.30,970.41 1209.38,971.59 1206.47,971.83 1202.69,971.04" />
	</edge>
	<edge id=":124_7" function="internal">
		<lane id=":124_7_0" index="0" disallow="tram rail_urban rail rail_electric rail_fast ship" speed="3.65" length="3.23" shape="1211.50,969.02 1210.63,969.20 1209.96,968.61 1209.49,967.25" />
	</edge>
	<edge id=":124_3" function="internal">
		<lane id=":124_3_0" index="0" disallow="tram rail_urban rail rail_electric rail_fast ship" speed="6.52" length="8.99" shape="1206.46,977.99 1206.81,975.56 1206.30,973.60 1204.92,972.09 1202.69,971.04" />
	</edge>
	<edge id=":124_4" function="internal">